version 2
run General-0-20230404-22:50:25-3464
attr configname General
attr datetime 20230404-22:50:25
attr experiment General
attr inifile omnetpp.ini
attr iterationvars ""
attr iterationvarsf ""
attr measurement ""
attr network highWayScenario
attr processid 3464
attr repetition 0
attr replication #0
attr resultdir results
attr runnumber 0
attr seedset 0
param *.playgroundSizeX 14935m
param *.playgroundSizeY 8039m
param *.playgroundSizeZ 50m
param *.annotations.draw true
param *.manager.updateInterval 1s
param *.manager.host "\"localhost\""
param *.manager.port 9999
param *.manager.autoShutdown false
param *.manager.launchConfig "xmldoc(\"map_nttd.launchd.xml\")"
param *.rsu[0].mobility.x 7509
param *.rsu[0].mobility.y 3830
param *.rsu[0].mobility.z 3
param *.rsu[*].applType "\"TraCIDemoRSU11p\""
param *.rsu[*].appl.headerLength "80 bit"
param *.rsu[*].appl.sendBeacons false
param *.rsu[*].appl.dataOnSch false
param *.rsu[*].appl.beaconInterval 1s
param *.rsu[*].appl.beaconUserPriority 7
param *.rsu[*].appl.dataUserPriority 5
param *.rsu[*].nic.phy80211p.antennaOffsetZ "0 m"
param *.connectionManager.sendDirect true
param *.connectionManager.maxInterfDist 2600m
param *.connectionManager.drawMaxIntfDist false
param *.**.nic.mac1609_4.useServiceChannel false
param *.**.nic.mac1609_4.txPower 20mW
param *.**.nic.mac1609_4.bitrate 6Mbps
param *.**.nic.phy80211p.minPowerLevel -110dBm
param *.**.nic.phy80211p.useNoiseFloor true
param *.**.nic.phy80211p.noiseFloor -98dBm
param *.**.nic.phy80211p.decider "xmldoc(\"config.xml\")"
param *.**.nic.phy80211p.analogueModels "xmldoc(\"config.xml\")"
param *.**.nic.phy80211p.usePropagationDelay true
param *.**.nic.phy80211p.antenna "xmldoc(\"antenna.xml\", \"/root/Antenna[@id='monopole']\")"
param *.node[*].nic.phy80211p.antennaOffsetY "0 m"
param *.node[*].nic.phy80211p.antennaOffsetZ "1.895 m"
param *.node[*].applType "\"TraCIDemo11p\""
param *.node[*].appl.headerLength "80 bit"
param *.node[*].appl.sendBeacons false
param *.node[*].appl.dataOnSch false
param *.node[*].appl.beaconInterval 1s
param *.node[*].veinsmobility.x 0
param *.node[*].veinsmobility.y 0
param *.node[*].veinsmobility.z 0
param *.node[*].veinsmobility.setHostSpeed false
param *.node[*0].veinsmobility.accidentCount 1
param *.node[*0].veinsmobility.accidentStart 73s
param *.node[*0].veinsmobility.accidentDuration 50s

vector 0 highWayScenario.node[0].veinsmobility posx ETV
vector 1 highWayScenario.node[0].veinsmobility posy ETV
vector 2 highWayScenario.node[1].veinsmobility posx ETV
vector 3 highWayScenario.node[1].veinsmobility posy ETV
vector 4 highWayScenario.node[2].veinsmobility posx ETV
vector 5 highWayScenario.node[2].veinsmobility posy ETV
vector 6 highWayScenario.node[0].veinsmobility speed ETV
vector 7 highWayScenario.node[1].veinsmobility speed ETV
vector 8 highWayScenario.node[2].veinsmobility speed ETV
vector 9 highWayScenario.node[0].veinsmobility acceleration ETV
vector 10 highWayScenario.node[0].veinsmobility co2emission ETV
vector 11 highWayScenario.node[1].veinsmobility acceleration ETV
vector 12 highWayScenario.node[1].veinsmobility co2emission ETV
vector 13 highWayScenario.node[2].veinsmobility acceleration ETV
vector 14 highWayScenario.node[2].veinsmobility co2emission ETV
vector 15 highWayScenario.node[3].veinsmobility posx ETV
vector 16 highWayScenario.node[3].veinsmobility posy ETV
vector 17 highWayScenario.node[4].veinsmobility posx ETV
vector 18 highWayScenario.node[4].veinsmobility posy ETV
vector 19 highWayScenario.node[5].veinsmobility posx ETV
vector 20 highWayScenario.node[5].veinsmobility posy ETV
vector 21 highWayScenario.node[3].veinsmobility speed ETV
vector 22 highWayScenario.node[4].veinsmobility speed ETV
vector 23 highWayScenario.node[5].veinsmobility speed ETV
vector 24 highWayScenario.node[3].veinsmobility acceleration ETV
vector 25 highWayScenario.node[3].veinsmobility co2emission ETV
vector 26 highWayScenario.node[4].veinsmobility acceleration ETV
vector 27 highWayScenario.node[4].veinsmobility co2emission ETV
vector 28 highWayScenario.node[5].veinsmobility acceleration ETV
vector 29 highWayScenario.node[5].veinsmobility co2emission ETV
vector 30 highWayScenario.node[6].veinsmobility posx ETV
vector 31 highWayScenario.node[6].veinsmobility posy ETV
vector 32 highWayScenario.node[7].veinsmobility posx ETV
vector 33 highWayScenario.node[7].veinsmobility posy ETV
vector 34 highWayScenario.node[8].veinsmobility posx ETV
vector 35 highWayScenario.node[8].veinsmobility posy ETV
vector 36 highWayScenario.node[6].veinsmobility speed ETV
vector 37 highWayScenario.node[7].veinsmobility speed ETV
vector 38 highWayScenario.node[8].veinsmobility speed ETV
vector 39 highWayScenario.node[6].veinsmobility acceleration ETV
vector 40 highWayScenario.node[6].veinsmobility co2emission ETV
vector 41 highWayScenario.node[7].veinsmobility acceleration ETV
vector 42 highWayScenario.node[7].veinsmobility co2emission ETV
vector 43 highWayScenario.node[8].veinsmobility acceleration ETV
vector 44 highWayScenario.node[8].veinsmobility co2emission ETV
vector 45 highWayScenario.node[9].veinsmobility posx ETV
vector 46 highWayScenario.node[9].veinsmobility posy ETV
vector 47 highWayScenario.node[10].veinsmobility posx ETV
vector 48 highWayScenario.node[10].veinsmobility posy ETV
vector 49 highWayScenario.node[11].veinsmobility posx ETV
vector 50 highWayScenario.node[11].veinsmobility posy ETV
vector 51 highWayScenario.node[9].veinsmobility speed ETV
vector 52 highWayScenario.node[10].veinsmobility speed ETV
vector 53 highWayScenario.node[11].veinsmobility speed ETV
vector 54 highWayScenario.node[9].veinsmobility acceleration ETV
vector 55 highWayScenario.node[9].veinsmobility co2emission ETV
vector 56 highWayScenario.node[10].veinsmobility acceleration ETV
vector 57 highWayScenario.node[10].veinsmobility co2emission ETV
vector 58 highWayScenario.node[11].veinsmobility acceleration ETV
vector 59 highWayScenario.node[11].veinsmobility co2emission ETV
vector 60 highWayScenario.node[12].veinsmobility posx ETV
vector 61 highWayScenario.node[12].veinsmobility posy ETV
vector 62 highWayScenario.node[13].veinsmobility posx ETV
vector 63 highWayScenario.node[13].veinsmobility posy ETV
vector 64 highWayScenario.node[14].veinsmobility posx ETV
vector 65 highWayScenario.node[14].veinsmobility posy ETV
vector 66 highWayScenario.node[12].veinsmobility speed ETV
vector 67 highWayScenario.node[13].veinsmobility speed ETV
vector 68 highWayScenario.node[14].veinsmobility speed ETV
vector 69 highWayScenario.node[12].veinsmobility acceleration ETV
vector 70 highWayScenario.node[12].veinsmobility co2emission ETV
vector 71 highWayScenario.node[13].veinsmobility acceleration ETV
vector 72 highWayScenario.node[13].veinsmobility co2emission ETV
vector 73 highWayScenario.node[14].veinsmobility acceleration ETV
vector 74 highWayScenario.node[14].veinsmobility co2emission ETV
vector 75 highWayScenario.node[15].veinsmobility posx ETV
vector 76 highWayScenario.node[15].veinsmobility posy ETV
vector 77 highWayScenario.node[16].veinsmobility posx ETV
vector 78 highWayScenario.node[16].veinsmobility posy ETV
vector 79 highWayScenario.node[17].veinsmobility posx ETV
vector 80 highWayScenario.node[17].veinsmobility posy ETV
vector 81 highWayScenario.node[15].veinsmobility speed ETV
vector 82 highWayScenario.node[16].veinsmobility speed ETV
vector 83 highWayScenario.node[17].veinsmobility speed ETV
vector 84 highWayScenario.node[15].veinsmobility acceleration ETV
vector 85 highWayScenario.node[15].veinsmobility co2emission ETV
vector 86 highWayScenario.node[16].veinsmobility acceleration ETV
vector 87 highWayScenario.node[16].veinsmobility co2emission ETV
vector 88 highWayScenario.node[17].veinsmobility acceleration ETV
vector 89 highWayScenario.node[17].veinsmobility co2emission ETV
vector 90 highWayScenario.node[18].veinsmobility posx ETV
vector 91 highWayScenario.node[18].veinsmobility posy ETV
vector 92 highWayScenario.node[19].veinsmobility posx ETV
vector 93 highWayScenario.node[19].veinsmobility posy ETV
vector 94 highWayScenario.node[18].veinsmobility speed ETV
vector 95 highWayScenario.node[19].veinsmobility speed ETV
vector 96 highWayScenario.node[20].veinsmobility posx ETV
vector 97 highWayScenario.node[20].veinsmobility posy ETV
vector 98 highWayScenario.node[18].veinsmobility acceleration ETV
vector 99 highWayScenario.node[18].veinsmobility co2emission ETV
vector 100 highWayScenario.node[19].veinsmobility acceleration ETV
vector 101 highWayScenario.node[19].veinsmobility co2emission ETV
vector 102 highWayScenario.node[21].veinsmobility posx ETV
vector 103 highWayScenario.node[21].veinsmobility posy ETV
vector 104 highWayScenario.node[22].veinsmobility posx ETV
vector 105 highWayScenario.node[22].veinsmobility posy ETV
vector 106 highWayScenario.node[20].veinsmobility speed ETV
vector 107 highWayScenario.node[20].veinsmobility acceleration ETV
vector 108 highWayScenario.node[20].veinsmobility co2emission ETV
vector 109 highWayScenario.node[21].veinsmobility speed ETV
vector 110 highWayScenario.node[22].veinsmobility speed ETV
vector 111 highWayScenario.node[23].veinsmobility posx ETV
vector 112 highWayScenario.node[23].veinsmobility posy ETV
vector 113 highWayScenario.node[21].veinsmobility acceleration ETV
vector 114 highWayScenario.node[21].veinsmobility co2emission ETV
vector 115 highWayScenario.node[22].veinsmobility acceleration ETV
vector 116 highWayScenario.node[22].veinsmobility co2emission ETV
vector 117 highWayScenario.node[24].veinsmobility posx ETV
vector 118 highWayScenario.node[24].veinsmobility posy ETV
vector 119 highWayScenario.node[25].veinsmobility posx ETV
vector 120 highWayScenario.node[25].veinsmobility posy ETV
vector 121 highWayScenario.node[23].veinsmobility speed ETV
vector 122 highWayScenario.node[23].veinsmobility acceleration ETV
vector 123 highWayScenario.node[23].veinsmobility co2emission ETV
vector 124 highWayScenario.node[24].veinsmobility speed ETV
vector 125 highWayScenario.node[25].veinsmobility speed ETV
vector 126 highWayScenario.node[26].veinsmobility posx ETV
vector 127 highWayScenario.node[26].veinsmobility posy ETV
vector 128 highWayScenario.node[24].veinsmobility acceleration ETV
vector 129 highWayScenario.node[24].veinsmobility co2emission ETV
vector 130 highWayScenario.node[25].veinsmobility acceleration ETV
vector 131 highWayScenario.node[25].veinsmobility co2emission ETV
vector 132 highWayScenario.node[27].veinsmobility posx ETV
vector 133 highWayScenario.node[27].veinsmobility posy ETV
vector 134 highWayScenario.node[28].veinsmobility posx ETV
vector 135 highWayScenario.node[28].veinsmobility posy ETV
vector 136 highWayScenario.node[26].veinsmobility speed ETV
vector 137 highWayScenario.node[26].veinsmobility acceleration ETV
vector 138 highWayScenario.node[26].veinsmobility co2emission ETV
vector 139 highWayScenario.node[27].veinsmobility speed ETV
vector 140 highWayScenario.node[28].veinsmobility speed ETV
vector 141 highWayScenario.node[29].veinsmobility posx ETV
vector 142 highWayScenario.node[29].veinsmobility posy ETV
vector 143 highWayScenario.node[27].veinsmobility acceleration ETV
vector 144 highWayScenario.node[27].veinsmobility co2emission ETV
vector 145 highWayScenario.node[28].veinsmobility acceleration ETV
vector 146 highWayScenario.node[28].veinsmobility co2emission ETV
vector 147 highWayScenario.node[30].veinsmobility posx ETV
vector 148 highWayScenario.node[30].veinsmobility posy ETV
vector 149 highWayScenario.node[31].veinsmobility posx ETV
vector 150 highWayScenario.node[31].veinsmobility posy ETV
vector 151 highWayScenario.node[29].veinsmobility speed ETV
vector 152 highWayScenario.node[29].veinsmobility acceleration ETV
vector 153 highWayScenario.node[29].veinsmobility co2emission ETV
vector 154 highWayScenario.node[30].veinsmobility speed ETV
vector 155 highWayScenario.node[31].veinsmobility speed ETV
vector 156 highWayScenario.node[32].veinsmobility posx ETV
vector 157 highWayScenario.node[32].veinsmobility posy ETV
vector 158 highWayScenario.node[33].veinsmobility posx ETV
vector 159 highWayScenario.node[33].veinsmobility posy ETV
vector 160 highWayScenario.node[30].veinsmobility acceleration ETV
vector 161 highWayScenario.node[30].veinsmobility co2emission ETV
vector 162 highWayScenario.node[31].veinsmobility acceleration ETV
vector 163 highWayScenario.node[31].veinsmobility co2emission ETV
vector 164 highWayScenario.node[34].veinsmobility posx ETV
vector 165 highWayScenario.node[34].veinsmobility posy ETV
vector 166 highWayScenario.node[32].veinsmobility speed ETV
vector 167 highWayScenario.node[33].veinsmobility speed ETV
vector 168 highWayScenario.node[32].veinsmobility acceleration ETV
vector 169 highWayScenario.node[32].veinsmobility co2emission ETV
vector 170 highWayScenario.node[33].veinsmobility acceleration ETV
vector 171 highWayScenario.node[33].veinsmobility co2emission ETV
vector 172 highWayScenario.node[34].veinsmobility speed ETV
vector 173 highWayScenario.node[35].veinsmobility posx ETV
vector 174 highWayScenario.node[35].veinsmobility posy ETV
vector 175 highWayScenario.node[36].veinsmobility posx ETV
vector 176 highWayScenario.node[36].veinsmobility posy ETV
vector 177 highWayScenario.node[34].veinsmobility acceleration ETV
vector 178 highWayScenario.node[34].veinsmobility co2emission ETV
vector 179 highWayScenario.node[37].veinsmobility posx ETV
vector 180 highWayScenario.node[37].veinsmobility posy ETV
vector 181 highWayScenario.node[35].veinsmobility speed ETV
vector 182 highWayScenario.node[36].veinsmobility speed ETV
vector 183 highWayScenario.node[35].veinsmobility acceleration ETV
vector 184 highWayScenario.node[35].veinsmobility co2emission ETV
vector 185 highWayScenario.node[36].veinsmobility acceleration ETV
vector 186 highWayScenario.node[36].veinsmobility co2emission ETV
vector 187 highWayScenario.node[37].veinsmobility speed ETV
vector 188 highWayScenario.node[38].veinsmobility posx ETV
vector 189 highWayScenario.node[38].veinsmobility posy ETV
vector 190 highWayScenario.node[39].veinsmobility posx ETV
vector 191 highWayScenario.node[39].veinsmobility posy ETV
vector 192 highWayScenario.node[37].veinsmobility acceleration ETV
vector 193 highWayScenario.node[37].veinsmobility co2emission ETV
vector 194 highWayScenario.node[40].veinsmobility posx ETV
vector 195 highWayScenario.node[40].veinsmobility posy ETV
vector 196 highWayScenario.node[38].veinsmobility speed ETV
vector 197 highWayScenario.node[39].veinsmobility speed ETV
vector 198 highWayScenario.node[38].veinsmobility acceleration ETV
vector 199 highWayScenario.node[38].veinsmobility co2emission ETV
vector 200 highWayScenario.node[39].veinsmobility acceleration ETV
vector 201 highWayScenario.node[39].veinsmobility co2emission ETV
vector 202 highWayScenario.node[40].veinsmobility speed ETV
vector 203 highWayScenario.node[41].veinsmobility posx ETV
vector 204 highWayScenario.node[41].veinsmobility posy ETV
vector 205 highWayScenario.node[40].veinsmobility acceleration ETV
vector 206 highWayScenario.node[40].veinsmobility co2emission ETV
vector 207 highWayScenario.node[42].veinsmobility posx ETV
vector 208 highWayScenario.node[42].veinsmobility posy ETV
vector 209 highWayScenario.node[43].veinsmobility posx ETV
vector 210 highWayScenario.node[43].veinsmobility posy ETV
vector 211 highWayScenario.node[41].veinsmobility speed ETV
vector 212 highWayScenario.node[41].veinsmobility acceleration ETV
vector 213 highWayScenario.node[41].veinsmobility co2emission ETV
vector 214 highWayScenario.node[42].veinsmobility speed ETV
vector 215 highWayScenario.node[43].veinsmobility speed ETV
vector 216 highWayScenario.node[44].veinsmobility posx ETV
vector 217 highWayScenario.node[44].veinsmobility posy ETV
vector 218 highWayScenario.node[42].veinsmobility acceleration ETV
vector 219 highWayScenario.node[42].veinsmobility co2emission ETV
vector 220 highWayScenario.node[43].veinsmobility acceleration ETV
vector 221 highWayScenario.node[43].veinsmobility co2emission ETV
vector 222 highWayScenario.node[45].veinsmobility posx ETV
vector 223 highWayScenario.node[45].veinsmobility posy ETV
vector 224 highWayScenario.node[46].veinsmobility posx ETV
vector 225 highWayScenario.node[46].veinsmobility posy ETV
vector 226 highWayScenario.node[44].veinsmobility speed ETV
vector 227 highWayScenario.node[44].veinsmobility acceleration ETV
vector 228 highWayScenario.node[44].veinsmobility co2emission ETV
vector 229 highWayScenario.node[45].veinsmobility speed ETV
vector 230 highWayScenario.node[46].veinsmobility speed ETV
vector 231 highWayScenario.node[47].veinsmobility posx ETV
vector 232 highWayScenario.node[47].veinsmobility posy ETV
vector 233 highWayScenario.node[45].veinsmobility acceleration ETV
vector 234 highWayScenario.node[45].veinsmobility co2emission ETV
vector 235 highWayScenario.node[46].veinsmobility acceleration ETV
vector 236 highWayScenario.node[46].veinsmobility co2emission ETV
vector 237 highWayScenario.node[48].veinsmobility posx ETV
vector 238 highWayScenario.node[48].veinsmobility posy ETV
vector 239 highWayScenario.node[49].veinsmobility posx ETV
vector 240 highWayScenario.node[49].veinsmobility posy ETV
vector 241 highWayScenario.node[47].veinsmobility speed ETV
vector 242 highWayScenario.node[47].veinsmobility acceleration ETV
vector 243 highWayScenario.node[47].veinsmobility co2emission ETV
vector 244 highWayScenario.node[48].veinsmobility speed ETV
vector 245 highWayScenario.node[49].veinsmobility speed ETV
vector 246 highWayScenario.node[50].veinsmobility posx ETV
vector 247 highWayScenario.node[50].veinsmobility posy ETV
vector 248 highWayScenario.node[48].veinsmobility acceleration ETV
vector 249 highWayScenario.node[48].veinsmobility co2emission ETV
vector 250 highWayScenario.node[49].veinsmobility acceleration ETV
vector 251 highWayScenario.node[49].veinsmobility co2emission ETV
vector 252 highWayScenario.node[51].veinsmobility posx ETV
vector 253 highWayScenario.node[51].veinsmobility posy ETV
vector 254 highWayScenario.node[52].veinsmobility posx ETV
vector 255 highWayScenario.node[52].veinsmobility posy ETV
vector 256 highWayScenario.node[50].veinsmobility speed ETV
vector 257 highWayScenario.node[50].veinsmobility acceleration ETV
vector 258 highWayScenario.node[50].veinsmobility co2emission ETV
vector 259 highWayScenario.node[51].veinsmobility speed ETV
vector 260 highWayScenario.node[52].veinsmobility speed ETV
vector 261 highWayScenario.node[53].veinsmobility posx ETV
vector 262 highWayScenario.node[53].veinsmobility posy ETV
vector 263 highWayScenario.node[51].veinsmobility acceleration ETV
vector 264 highWayScenario.node[51].veinsmobility co2emission ETV
vector 265 highWayScenario.node[52].veinsmobility acceleration ETV
vector 266 highWayScenario.node[52].veinsmobility co2emission ETV
vector 267 highWayScenario.node[54].veinsmobility posx ETV
vector 268 highWayScenario.node[54].veinsmobility posy ETV
vector 269 highWayScenario.node[55].veinsmobility posx ETV
vector 270 highWayScenario.node[55].veinsmobility posy ETV
vector 271 highWayScenario.node[53].veinsmobility speed ETV
vector 272 highWayScenario.node[53].veinsmobility acceleration ETV
vector 273 highWayScenario.node[53].veinsmobility co2emission ETV
vector 274 highWayScenario.node[54].veinsmobility speed ETV
vector 275 highWayScenario.node[55].veinsmobility speed ETV
vector 276 highWayScenario.node[56].veinsmobility posx ETV
vector 277 highWayScenario.node[56].veinsmobility posy ETV
vector 278 highWayScenario.node[54].veinsmobility acceleration ETV
vector 279 highWayScenario.node[54].veinsmobility co2emission ETV
vector 280 highWayScenario.node[55].veinsmobility acceleration ETV
vector 281 highWayScenario.node[55].veinsmobility co2emission ETV
vector 282 highWayScenario.node[57].veinsmobility posx ETV
vector 283 highWayScenario.node[57].veinsmobility posy ETV
vector 284 highWayScenario.node[58].veinsmobility posx ETV
vector 285 highWayScenario.node[58].veinsmobility posy ETV
vector 286 highWayScenario.node[56].veinsmobility speed ETV
vector 287 highWayScenario.node[56].veinsmobility acceleration ETV
vector 288 highWayScenario.node[56].veinsmobility co2emission ETV
vector 289 highWayScenario.node[57].veinsmobility speed ETV
vector 290 highWayScenario.node[58].veinsmobility speed ETV
vector 291 highWayScenario.node[59].veinsmobility posx ETV
vector 292 highWayScenario.node[59].veinsmobility posy ETV
vector 293 highWayScenario.node[57].veinsmobility acceleration ETV
vector 294 highWayScenario.node[57].veinsmobility co2emission ETV
vector 295 highWayScenario.node[58].veinsmobility acceleration ETV
vector 296 highWayScenario.node[58].veinsmobility co2emission ETV
vector 297 highWayScenario.node[60].veinsmobility posx ETV
vector 298 highWayScenario.node[60].veinsmobility posy ETV
vector 299 highWayScenario.node[61].veinsmobility posx ETV
vector 300 highWayScenario.node[61].veinsmobility posy ETV
vector 301 highWayScenario.node[59].veinsmobility speed ETV
vector 302 highWayScenario.node[59].veinsmobility acceleration ETV
vector 303 highWayScenario.node[59].veinsmobility co2emission ETV
vector 304 highWayScenario.node[60].veinsmobility speed ETV
vector 305 highWayScenario.node[61].veinsmobility speed ETV
vector 306 highWayScenario.node[62].veinsmobility posx ETV
vector 307 highWayScenario.node[62].veinsmobility posy ETV
vector 308 highWayScenario.node[60].veinsmobility acceleration ETV
vector 309 highWayScenario.node[60].veinsmobility co2emission ETV
vector 310 highWayScenario.node[61].veinsmobility acceleration ETV
vector 311 highWayScenario.node[61].veinsmobility co2emission ETV
vector 312 highWayScenario.node[63].veinsmobility posx ETV
vector 313 highWayScenario.node[63].veinsmobility posy ETV
vector 314 highWayScenario.node[64].veinsmobility posx ETV
vector 315 highWayScenario.node[64].veinsmobility posy ETV
vector 316 highWayScenario.node[62].veinsmobility speed ETV
vector 317 highWayScenario.node[62].veinsmobility acceleration ETV
vector 318 highWayScenario.node[62].veinsmobility co2emission ETV
vector 319 highWayScenario.node[63].veinsmobility speed ETV
vector 320 highWayScenario.node[64].veinsmobility speed ETV
vector 321 highWayScenario.node[65].veinsmobility posx ETV
vector 322 highWayScenario.node[65].veinsmobility posy ETV
vector 323 highWayScenario.node[63].veinsmobility acceleration ETV
vector 324 highWayScenario.node[63].veinsmobility co2emission ETV
vector 325 highWayScenario.node[64].veinsmobility acceleration ETV
vector 326 highWayScenario.node[64].veinsmobility co2emission ETV
vector 327 highWayScenario.node[66].veinsmobility posx ETV
vector 328 highWayScenario.node[66].veinsmobility posy ETV
vector 329 highWayScenario.node[67].veinsmobility posx ETV
vector 330 highWayScenario.node[67].veinsmobility posy ETV
vector 331 highWayScenario.node[65].veinsmobility speed ETV
vector 332 highWayScenario.node[65].veinsmobility acceleration ETV
vector 333 highWayScenario.node[65].veinsmobility co2emission ETV
vector 334 highWayScenario.node[66].veinsmobility speed ETV
vector 335 highWayScenario.node[67].veinsmobility speed ETV
vector 336 highWayScenario.node[68].veinsmobility posx ETV
vector 337 highWayScenario.node[68].veinsmobility posy ETV
vector 338 highWayScenario.node[66].veinsmobility acceleration ETV
vector 339 highWayScenario.node[66].veinsmobility co2emission ETV
vector 340 highWayScenario.node[67].veinsmobility acceleration ETV
vector 341 highWayScenario.node[67].veinsmobility co2emission ETV
vector 342 highWayScenario.node[69].veinsmobility posx ETV
vector 343 highWayScenario.node[69].veinsmobility posy ETV
vector 344 highWayScenario.node[70].veinsmobility posx ETV
vector 345 highWayScenario.node[70].veinsmobility posy ETV
vector 346 highWayScenario.node[68].veinsmobility speed ETV
vector 347 highWayScenario.node[68].veinsmobility acceleration ETV
vector 348 highWayScenario.node[68].veinsmobility co2emission ETV
vector 349 highWayScenario.node[69].veinsmobility speed ETV
vector 350 highWayScenario.node[70].veinsmobility speed ETV
vector 351 highWayScenario.node[71].veinsmobility posx ETV
vector 352 highWayScenario.node[71].veinsmobility posy ETV
vector 353 highWayScenario.node[69].veinsmobility acceleration ETV
vector 354 highWayScenario.node[69].veinsmobility co2emission ETV
vector 355 highWayScenario.node[70].veinsmobility acceleration ETV
vector 356 highWayScenario.node[70].veinsmobility co2emission ETV
vector 357 highWayScenario.node[72].veinsmobility posx ETV
vector 358 highWayScenario.node[72].veinsmobility posy ETV
vector 359 highWayScenario.node[73].veinsmobility posx ETV
vector 360 highWayScenario.node[73].veinsmobility posy ETV
vector 361 highWayScenario.node[71].veinsmobility speed ETV
vector 362 highWayScenario.node[71].veinsmobility acceleration ETV
vector 363 highWayScenario.node[71].veinsmobility co2emission ETV
vector 364 highWayScenario.node[72].veinsmobility speed ETV
vector 365 highWayScenario.node[73].veinsmobility speed ETV
vector 366 highWayScenario.node[72].veinsmobility acceleration ETV
vector 367 highWayScenario.node[72].veinsmobility co2emission ETV
vector 368 highWayScenario.node[73].veinsmobility acceleration ETV
vector 369 highWayScenario.node[73].veinsmobility co2emission ETV
vector 370 highWayScenario.node[74].veinsmobility posx ETV
vector 371 highWayScenario.node[74].veinsmobility posy ETV
vector 372 highWayScenario.node[75].veinsmobility posx ETV
vector 373 highWayScenario.node[75].veinsmobility posy ETV
vector 374 highWayScenario.node[76].veinsmobility posx ETV
vector 375 highWayScenario.node[76].veinsmobility posy ETV
vector 376 highWayScenario.node[74].veinsmobility speed ETV
vector 377 highWayScenario.node[75].veinsmobility speed ETV
vector 378 highWayScenario.node[76].veinsmobility speed ETV
vector 379 highWayScenario.node[74].veinsmobility acceleration ETV
vector 380 highWayScenario.node[74].veinsmobility co2emission ETV
vector 381 highWayScenario.node[75].veinsmobility acceleration ETV
vector 382 highWayScenario.node[75].veinsmobility co2emission ETV
vector 383 highWayScenario.node[76].veinsmobility acceleration ETV
vector 384 highWayScenario.node[76].veinsmobility co2emission ETV
vector 385 highWayScenario.node[77].veinsmobility posx ETV
vector 386 highWayScenario.node[77].veinsmobility posy ETV
vector 387 highWayScenario.node[78].veinsmobility posx ETV
vector 388 highWayScenario.node[78].veinsmobility posy ETV
vector 389 highWayScenario.node[79].veinsmobility posx ETV
vector 390 highWayScenario.node[79].veinsmobility posy ETV
vector 391 highWayScenario.node[77].veinsmobility speed ETV
vector 392 highWayScenario.node[78].veinsmobility speed ETV
vector 393 highWayScenario.node[79].veinsmobility speed ETV
vector 394 highWayScenario.node[77].veinsmobility acceleration ETV
vector 395 highWayScenario.node[77].veinsmobility co2emission ETV
vector 396 highWayScenario.node[78].veinsmobility acceleration ETV
vector 397 highWayScenario.node[78].veinsmobility co2emission ETV
vector 398 highWayScenario.node[79].veinsmobility acceleration ETV
vector 399 highWayScenario.node[79].veinsmobility co2emission ETV
vector 400 highWayScenario.node[80].veinsmobility posx ETV
vector 401 highWayScenario.node[80].veinsmobility posy ETV
vector 402 highWayScenario.node[81].veinsmobility posx ETV
vector 403 highWayScenario.node[81].veinsmobility posy ETV
vector 404 highWayScenario.node[82].veinsmobility posx ETV
vector 405 highWayScenario.node[82].veinsmobility posy ETV
vector 406 highWayScenario.node[80].veinsmobility speed ETV
vector 407 highWayScenario.node[81].veinsmobility speed ETV
vector 408 highWayScenario.node[82].veinsmobility speed ETV
vector 409 highWayScenario.node[80].veinsmobility acceleration ETV
vector 410 highWayScenario.node[80].veinsmobility co2emission ETV
vector 411 highWayScenario.node[81].veinsmobility acceleration ETV
vector 412 highWayScenario.node[81].veinsmobility co2emission ETV
vector 413 highWayScenario.node[82].veinsmobility acceleration ETV
vector 414 highWayScenario.node[82].veinsmobility co2emission ETV
vector 415 highWayScenario.node[83].veinsmobility posx ETV
vector 416 highWayScenario.node[83].veinsmobility posy ETV
vector 417 highWayScenario.node[84].veinsmobility posx ETV
vector 418 highWayScenario.node[84].veinsmobility posy ETV
vector 419 highWayScenario.node[85].veinsmobility posx ETV
vector 420 highWayScenario.node[85].veinsmobility posy ETV
vector 421 highWayScenario.node[83].veinsmobility speed ETV
vector 422 highWayScenario.node[84].veinsmobility speed ETV
vector 423 highWayScenario.node[85].veinsmobility speed ETV
0	2	1	1398.7208418272
0	3	2	1396.8808488728
0	4	3	1392.9373528584
0	5	4	1387.0875425468
0	6	5	1378.9356466964
0	7	6	1370.1862435946
0	8	7	1359.5147798245
0	9	8	1346.9002769415
0	10	9	1331.3954671287
0	11	10	1313.8943025667
0	12	11	1293.7943479841
0	13	12	1271.9200804574
0	14	13	1247.7957302368
0	15	14	1221.7419372212
0	16	15	1193.2804675041
0	17	16	1163.0095857839
0	18	17	1133.1415460109
0	19	18	1103.8775821874
0	20	19	1078.8543984153
0	21	20	1058.146247158
0	22	21	1041.69527493
0	23	22	1029.3931529103
0	24	23	1021.1051370887
0	25	24	1013.1755324322
0	26	25	1004.1636897968
0	27	26	995.66610499395
0	28	27	985.55857676387
0	29	28	973.10722021089
0	30	29	958.16605116012
0	31	30	941.12103587277
0	32	31	921.66523668437
0	33	32	899.88991362697
0	34	33	876.28289070519
0	35	34	850.90880175236
0	36	35	833.08291116537
0	37	36	817.11455124236
0	38	37	803.26147959759
0	39	38	789.79043442815
0	40	39	771.93413901214
0	41	40	747.43113107169
0	42	41	722.28564978316
0	43	42	696.46518551853
0	44	43	673.50895555652
0	45	44	654.61341649847
0	46	45	640.03345238146
0	47	46	629.77243225687
0	48	47	623.11430561528
0	49	48	619.74417965112
0	50	49	616.24065950556
0	51	50	617.54393850962
0	52	51	622.59038942653
0	53	52	628.93972237152
0	54	53	635.96110203179
0	55	54	642.70892366817
0	56	55	649.89962175218
0	57	56	656.43817475509
0	58	57	661.97359585775
0	59	58	665.68254534181
0	60	59	669.72717911185
0	61	60	673.10817722586
0	62	61	675.13807386706
0	63	62	676.6420841963
0	64	63	677.68679830632
0	65	64	678.56831492945
0	66	65	679.03782005849
0	67	66	678.82777047922
0	68	67	678.05054776252
0	69	68	678.19297223333
0	70	69	678.36699285673
0	71	70	678.54030138838
0	72	71	678.70451491349
0	73	72	678.87720966009
0	74	73	679.06785901921
0	76	74	679.21492313678
0	77	75	679.31367430374
0	78	76	679.36411252009
0	79	77	679.36623778583
0	80	78	679.36623778583
0	81	79	679.36623778583
0	82	80	679.36623778583
0	83	81	679.36623778583
0	84	82	679.36623778583
0	86	83	679.36623778583
0	87	84	679.36623778583
0	88	85	679.36623778583
0	89	86	679.36623778583
1	2	1	1794.4544590726
1	3	2	1793.5421292328
1	4	3	1791.586812459
1	5	4	1788.6862815128
1	6	5	1784.5895298221
1	7	6	1778.8989479389
1	8	7	1771.9582643642
1	9	8	1763.7538347893
1	10	9	1757.8372385672
1	11	10	1751.6796785349
1	12	11	1745.1967420966
1	13	12	1737.4935507624
1	14	13	1732.3511114987
1	15	14	1734.1301149692
1	16	15	1738.3765186339
1	17	16	1742.9077844697
1	18	17	1747.9069001314
1	19	18	1749.9270047302
1	20	19	1748.6102200344
1	21	20	1747.2870510435
1	22	21	1745.7893595843
1	23	22	1744.7807848034
1	24	23	1745.0694040956
1	25	24	1745.2472488059
1	26	25	1741.8908114676
1	27	26	1742.0156090806
1	28	27	1740.0586716283
1	29	28	1737.3512863274
1	30	29	1736.44821349
1	31	30	1736.1816471204
1	32	31	1735.8773785898
1	33	32	1735.5368351103
1	34	33	1735.1676457438
1	35	34	1733.3504066227
1	36	35	1712.6228559397
1	37	36	1687.942381246
1	38	37	1661.50095575
1	39	38	1634.5540910935
1	40	39	1610.7475747534
1	41	40	1592.4285011831
1	42	41	1575.3149703606
1	43	42	1559.2921122643
1	44	43	1546.552655652
1	45	44	1535.7612183205
1	46	45	1526.5347108194
1	47	46	1518.9461908906
1	48	47	1514.022184691
1	49	48	1511.1238806867
1	50	49	1505.7900963588
1	51	50	1497.7814942795
1	52	51	1488.6659404188
1	53	52	1478.1151200948
1	54	53	1464.9963641492
1	55	54	1449.9747612117
1	56	55	1433.9672528214
1	57	56	1417.7065084125
1	58	57	1400.4918905183
1	59	58	1383.3649263857
1	60	59	1366.0126995713
1	61	60	1348.2925856226
1	62	61	1330.1007401805
1	63	62	1312.4687302432
1	64	63	1295.1020541287
1	65	64	1277.2129241027
1	66	65	1259.8132875941
1	67	66	1242.2975562832
1	68	67	1224.5297353252
1	69	68	1206.6997532364
1	70	69	1188.1626018294
1	71	70	1169.7013043791
1	72	71	1152.2088318294
1	73	72	1133.8129164352
1	74	73	1115.6235840964
1	76	74	1101.9321558397
1	77	75	1092.738584083
1	78	76	1088.0428688264
1	79	77	1087.8450100698
1	80	78	1087.8450100698
1	81	79	1087.8450100698
1	82	80	1087.8450100698
1	83	81	1087.8450100698
1	84	82	1087.8450100698
1	86	83	1087.8450100698
1	87	84	1087.8450100698
1	88	85	1087.8450100698
1	89	86	1087.8450100698
2	2	1	1001.5438852106
2	3	2	1001.0837004509
2	4	3	1000.1901034848
2	5	4	998.91399157084
2	6	5	997.13428384524
2	7	6	994.74557277032
2	8	7	991.82851339242
2	9	8	988.54888917873
2	10	9	984.9022957453
2	11	10	980.93829491897
2	12	11	977.13183700215
2	13	12	972.97392863082
2	14	13	968.15410033242
2	15	14	965.27213586338
2	16	15	963.90010057744
2	17	16	967.70365029304
2	18	17	976.90313788805
2	19	18	990.04301632428
2	20	19	1002.6213836679
2	21	20	1015.5082185614
2	22	21	1028.7631312528
2	23	22	1042.5921789099
2	24	23	1057.557388859
2	25	24	1076.254860058
2	26	25	1093.7650389395
2	27	26	1112.1394998304
2	28	27	1130.9245131342
2	29	28	1149.7005099837
2	30	29	1167.9302873487
2	31	30	1184.9053325754
2	32	31	1202.8125218542
2	33	32	1217.4549094927
2	34	33	1228.9536608627
2	35	34	1241.6391312285
2	36	35	1253.7175237008
2	37	36	1277.0441389264
2	38	37	1301.8794917776
2	39	38	1329.0669028344
2	40	39	1356.4590855235
2	41	40	1381.0052805232
2	42	41	1402.5150549119
2	43	42	1425.3377579129
2	44	43	1443.6042027804
2	45	44	1460.8420665444
2	46	45	1477.9704851202
2	47	46	1495.3939122685
2	48	47	1512.8625947564
2	49	48	1532.7039377631
2	50	49	1555.8714610401
2	51	50	1577.3856970582
2	52	51	1597.8186352221
2	53	52	1615.6003120188
2	54	53	1631.779529159
2	55	54	1645.0641082363
2	56	55	1651.7403123699
2	57	56	1657.0616158464
2	58	57	1661.6153744783
2	59	58	1664.4480316718
2	60	59	1664.1671236767
2	61	60	1658.3352653552
2	62	61	1650.777987231
2	63	62	1646.1737339321
2	64	63	1642.2251447337
2	65	64	1641.8261520664
2	66	65	1647.9030248179
2	67	66	1659.8947215264
2	68	67	1673.9071462456
2	69	68	1687.6019629976
2	70	69	1700.699415612
2	71	70	1713.9396509142
2	72	71	1727.4015884644
2	73	72	1741.1191939564
2	74	73	1753.4960032862
2	76	74	1762.4418705805
2	77	75	1769.0883793469
2	78	76	1774.138221736
2	79	77	1777.4137090915
2	80	78	1779.5074141303
2	81	79	1780.0899384681
2	82	80	1777.5507735258
2	83	81	1776.3447530992
2	84	82	1774.9598134515
2	86	83	1773.0007661681
2	87	84	1770.0593551981
2	88	85	1766.2815797829
2	89	86	1761.8659694569
3	2	1	1730.622261498
3	3	2	1728.3588527613
3	4	3	1723.9637155096
3	5	4	1717.6871868022
3	6	5	1708.9337330432
3	7	6	1698.0617814284
3	8	7	1684.8291143825
3	9	8	1669.9517431556
3	10	9	1653.4096881251
3	11	10	1635.4277767859
3	12	11	1616.0122095712
3	13	12	1594.1161661355
3	14	13	1569.9083809729
3	15	14	1543.2343118404
3	16	15	1514.2576551157
3	17	16	1485.5970207952
3	18	17	1458.4294292979
3	19	18	1432.5236591133
3	20	19	1407.5339440893
3	21	20	1382.0256942081
3	22	21	1357.357279404
3	23	22	1332.8258337126
3	24	23	1309.1213247441
3	25	24	1288.1764842787
3	26	25	1266.5818984055
3	27	26	1245.0502804402
3	28	27	1223.5132094218
3	29	28	1201.9864757937
3	30	29	1180.4698839529
3	31	30	1158.10370707
3	32	31	1135.4006971034
3	33	32	1110.7679732992
3	34	33	1084.2739675712
3	35	34	1058.2587885967
3	36	35	1032.810852666
3	37	36	1015.6697071687
3	38	37	1002.2526587015
3	39	38	994.18272957376
3	40	39	985.71265143697
3	41	40	972.01281696276
3	42	41	954.07405956476
3	43	42	936.71133017785
3	44	43	915.05695748591
3	45	44	891.87943890241
3	46	45	869.73007801016
3	47	46	847.74729908603
3	48	47	825.39761811421
3	49	48	805.7570837578
3	50	49	788.85839576309
3	51	50	770.59563384088
3	52	51	750.93460672226
3	53	52	728.18382531967
3	54	53	704.16383158996
3	55	54	678.72031630019
3	56	55	651.79491250515
3	57	56	623.96360469062
3	58	57	595.52152019563
3	59	58	567.07019278166
3	60	59	538.10526279471
3	61	60	510.88395505986
3	62	61	482.94732436854
3	63	62	455.45556728543
3	64	63	427.64827181721
3	65	64	399.30995623579
3	66	65	371.23757195006
3	67	66	345.58221607817
3	68	67	320.41920230475
3	69	68	295.70281599632
3	70	69	269.72896481999
3	71	70	244.32296785016
3	72	71	219.61235195483
3	73	72	195.070287421
3	74	73	169.30138361591
3	76	74	145.78704915564
3	77	75	126.02776716193
3	78	76	110.48159222992
3	79	77	99.098081462418
3	80	78	91.29819175268
3	81	79	87.853947176617
3	82	80	87.269312421521
3	83	81	90.734473562198
3	84	82	95.886703168875
3	86	83	103.17471852143
3	87	84	112.85716137825
3	88	85	124.327011479
3	89	86	137.45744456565
4	2	1	1735.5864468953
4	3	2	1734.1259056307
4	4	3	1730.970508949
4	5	4	1725.9716296543
4	6	5	1719.9749731396
4	7	6	1712.9956581496
4	8	7	1704.5851599489
4	9	8	1693.7207728357
4	10	9	1680.9284933346
4	11	10	1666.548709581
4	12	11	1652.2531979862
4	13	12	1638.0134427491
4	14	13	1623.7562071369
4	15	14	1609.8041901846
4	16	15	1595.302440263
4	17	16	1580.8916427504
4	18	17	1566.0394714594
4	19	18	1551.4466939152
4	20	19	1536.5071322573
4	21	20	1521.4390718833
4	22	21	1506.4220955838
4	23	22	1491.2967524144
4	24	23	1476.5629609314
4	25	24	1461.549427138
4	26	25	1446.8569065985
4	27	26	1432.0571719699
4	28	27	1417.6100221635
4	29	28	1403.9819443658
4	30	29	1389.68664916
4	31	30	1374.952625488
4	32	31	1360.4410794322
4	33	32	1345.6457223738
4	34	33	1330.7426676563
4	35	34	1315.848393656
4	36	35	1301.4910581546
4	37	36	1286.6180823785
4	38	37	1272.1903766214
4	39	38	1256.8985012986
4	40	39	1241.9006349106
4	41	40	1227.6716958905
4	42	41	1213.5236810999
4	43	42	1199.023566427
4	44	43	1184.2626876515
4	45	44	1170.0508483772
4	46	45	1155.1097211026
4	47	46	1143.1570583673
4	48	47	1128.8460478059
4	49	48	1114.2254213168
4	50	49	1101.355549059
4	51	50	1088.4013265889
4	52	51	1074.6479565576
4	53	52	1058.5802439041
4	54	53	1044.9259065203
4	55	54	1031.1176496933
4	56	55	1018.4509119273
4	57	56	1006.5384649377
4	58	57	994.44402865166
4	59	58	982.29514921389
4	60	59	970.06820198628
4	61	60	957.93747104004
4	62	61	946.28056664982
4	63	62	934.4166479378
4	64	63	922.54550044354
4	65	64	911.42384947551
4	66	65	900.61552632677
4	67	66	889.73517645229
4	68	67	878.23151768968
4	69	68	867.43224419434
4	70	69	856.67737076937
4	71	70	846.07391653511
4	72	71	835.85795271066
4	73	72	825.82454258916
4	74	73	814.5362797055
4	76	74	803.578808755
4	77	75	792.49396547162
4	78	76	782.36592677735
4	79	77	772.20762713603
4	80	78	761.38512898574
4	81	79	750.88324159296
4	82	80	740.45163736775
4	83	81	729.74374910679
4	84	82	722.48877145207
4	86	83	712.57066167809
4	87	84	702.32700989189
4	88	85	693.56509423621
4	89	86	686.13469927498
5	2	1	26.25514509289
5	3	2	27.672467555898
5	4	3	30.734493056487
5	5	4	35.585450770603
5	6	5	41.404660530306
5	7	6	48.177450968799
5	8	7	56.304988373243
5	9	8	64.9472242761
5	10	9	74.903983655949
5	11	10	84.029093693573
5	12	11	92.925311534632
5	13	12	101.25730418012
5	14	13	109.59952497597
5	15	14	117.76315564942
5	16	15	125.95694277879
5	17	16	134.05315432178
5	18	17	142.39733656011
5	19	18	149.96268591673
5	20	19	156.81382023789
5	21	20	163.72387309304
5	22	21	170.98381342649
5	23	22	178.6906837947
5	24	23	186.19804542747
5	25	24	193.84794516316
5	26	25	201.33427786403
5	27	26	209.85169478439
5	28	27	218.61891959813
5	29	28	226.79357572387
5	30	29	234.55717600616
5	31	30	242.5590443616
5	32	31	250.44008784018
5	33	32	258.12675571202
5	34	33	265.71539341274
5	35	34	273.29955997088
5	36	35	280.61031736475
5	37	36	288.18363886395
5	38	37	295.41939834675
5	39	38	302.76577126675
5	40	39	309.97089929487
5	41	40	317.2652323647
5	42	41	324.68968679413
5	43	42	332.29891269639
5	44	43	340.0449797898
5	45	44	347.56258049985
5	46	45	355.55205311113
5	47	46	365.56769641986
5	48	47	373.22109968235
5	49	48	381.75816880678
5	50	49	391.76878018027
5	51	50	401.09064053458
5	52	51	410.59024381001
5	53	52	417.80794642401
5	54	53	427.11789577562
5	55	54	436.51303204753
5	56	55	446.33902048408
5	57	56	457.18468117617
5	58	57	468.2024588734
5	59	58	479.56226539275
5	60	59	490.99506917842
5	61	60	502.64196294988
5	62	61	514.78865323884
5	63	62	527.15105593035
5	64	63	539.50497984202
5	65	64	552.22162062615
5	66	65	565.08433127918
5	67	66	577.79330650062
5	68	67	590.40833568606
5	69	68	602.97096813651
5	70	69	616.34599007367
5	71	70	629.53270342575
5	72	71	642.23752428809
5	73	72	654.71531692934
5	74	73	667.28880865006
5	76	74	679.23743996848
5	77	75	691.32496511127
5	78	76	703.83995194309
5	79	77	716.6350841874
5	80	78	729.57353519307
5	81	79	742.12869146215
5	82	80	754.59982320126
5	83	81	767.53844314219
5	84	82	782.61285472831
5	86	83	795.9122040257
5	87	84	809.64807772443
5	88	85	823.29681502853
5	89	86	838.44237402619
6	3	2	2.0537621400552
6	4	3	4.4016488186084
6	5	4	6.5294374719728
6	6	5	9.1261657744413
6	7	6	10.437206072034
6	8	7	12.730041713873
6	9	8	15.047902645846
6	10	9	16.606107014604
6	11	10	18.558426872734
6	12	11	21.119872755511
6	13	12	23.193640502123
6	14	13	24.796403164486
6	15	14	26.192247015075
6	16	15	28.784839613154
6	17	16	30.610578879141
6	18	17	30.283578294059
6	19	18	29.359726321754
6	20	19	25.120870823319
6	21	20	20.767309106522
6	22	21	16.527434300744
6	23	22	12.343424156017
6	24	23	8.3120074792184
6	25	24	7.9607640749764
6	26	25	9.6311952957234
6	27	26	8.6779465888676
6	28	27	10.305244650261
6	29	28	12.741983739485
6	30	29	15.019728947233
6	31	30	17.046676157217
6	32	31	19.457694965566
6	33	32	21.777444849454
6	34	33	23.609323195054
6	35	34	25.872295016458
6	36	35	27.571215721068
6	37	36	29.463172004663
6	38	37	29.849829361737
6	39	38	30.136715217805
6	40	39	30.89093188521
6	41	40	30.600316577088
6	42	41	30.415821682368
6	43	42	30.524451853414
6	44	43	26.262064499857
6	45	44	21.762064499857
6	46	45	17.262064499857
6	47	46	12.762064499857
6	48	47	8.2809935675359
6	49	48	4.4567336805987
6	50	49	6.5337777061046
6	51	50	8.2553268600379
6	52	51	10.430082845211
6	53	52	12.319126939553
6	54	53	14.911760155147
6	55	54	16.474491432601
6	56	55	17.555753599151
6	57	56	17.542198553632
6	58	57	18.131764504031
6	59	58	17.531473176248
6	60	59	17.824837406303
6	61	60	18.075641674988
6	62	61	18.312412797494
6	63	62	17.709215662463
6	64	63	17.405357957116
6	65	64	17.920501354287
6	66	65	17.413260315635
6	67	66	17.535165444084
6	68	67	17.792261132619
6	69	68	17.838664827353
6	70	69	18.545732836539
6	71	70	18.469843764694
6	72	71	17.500570364596
6	73	72	18.404431441144
6	74	73	18.197953048206
6	76	74	13.697953048206
6	77	75	9.197953048206
6	78	76	4.697953048206
6	79	77	0.19795304820603
6	80	78	0
6	81	79	0
6	82	80	0
6	83	81	0
6	84	82	0
6	86	83	0
6	87	84	0
6	88	85	0
6	89	86	0
7	3	2	2.3097215975402
7	4	3	4.485068591428
7	5	4	6.4049562405795
7	6	5	8.9325630288338
7	7	6	11.131361206993
7	8	7	13.550408256589
7	9	8	15.234604876558
7	10	9	16.93926086768
7	11	10	18.413690833026
7	12	11	19.790376715292
7	13	12	22.288986676815
7	14	13	24.682998849498
7	15	14	26.901465414977
7	16	15	29.009188504413
7	17	16	28.967409625615
7	18	17	28.767530939507
7	19	18	29.047706389043
7	20	19	27.976938122756
7	21	20	28.578752816667
7	22	21	28.048106864712
7	23	22	28.171649237431
7	24	23	28.063566975913
7	25	24	28.108177731501
7	26	25	27.854643406615
7	27	26	28.322724649951
7	28	27	28.578417376883
7	29	28	28.564700272342
7	30	29	28.20366316255
7	31	30	28.090645522264
7	32	31	28.920336252952
7	33	32	28.790765459498
7	34	33	28.897900354921
7	35	34	28.943299424404
7	36	35	28.274108683423
7	37	36	29.048770308064
7	38	37	28.272332638654
7	39	38	28.359880205931
7	40	39	28.682247855387
7	41	40	28.299086771242
7	42	41	28.013786819193
7	43	42	28.676566513081
7	44	43	28.548423129286
7	45	44	28.903370968195
7	46	45	28.004865655175
7	47	46	28.050348145038
7	48	47	28.380036419619
7	49	48	27.972367432935
7	50	49	28.683747487481
7	51	50	28.227654925746
7	52	51	28.396810273908
7	53	52	28.878507368116
7	54	53	29.089294396423
7	55	54	28.718864412431
7	56	55	28.023710635898
7	57	56	28.364865363425
7	58	57	28.82951912809
7	59	58	28.628422945633
7	60	59	28.990005847707
7	61	60	27.911160079937
7	62	61	28.97828583956
7	63	62	27.874710019201
7	64	63	28.105818427529
7	65	64	28.36041611844
7	66	65	28.992101151904
7	67	66	28.32739176146
7	68	67	28.810777332739
7	69	68	28.262123283779
7	70	69	29.08931304483
7	71	70	28.651594396832
7	72	71	28.140358975309
7	73	72	28.115641505423
7	74	73	28.626005508972
7	76	74	25.16729687448
7	77	75	20.847237678492
7	78	76	16.347237678492
7	79	77	11.847237678492
7	80	78	8.0760251787518
7	81	79	3.5760251787518
7	82	80	3.5923093975548
7	83	81	3.7378610973739
7	84	82	5.3351442612967
7	86	83	7.5467547552687
7	87	84	10.119777224681
7	88	85	12.076810317885
7	89	86	13.853067616772
8	3	2	2.0332066265866
8	4	3	4.3925999206724
8	5	4	6.9588958243839
8	6	5	8.347892701719
8	7	6	9.7158429076197
8	8	7	11.685669082543
8	9	8	13.868971715379
8	10	9	16.202928488515
8	11	10	17.014164292987
8	12	11	16.823224540625
8	13	12	16.482215282542
8	14	13	16.502448446827
8	15	14	16.149164308223
8	16	15	16.640599817748
8	17	16	16.513280084508
8	18	17	17.019048680493
8	19	18	16.434605330566
8	20	19	16.419599508808
8	21	20	16.560824342852
8	22	21	16.667139554338
8	23	22	16.959111815819
8	24	23	16.520089126832
8	25	24	16.83374687765
8	26	25	16.47381457045
8	27	26	17.063376602961
8	28	27	16.882802399166
8	29	28	15.878092386399
8	30	29	16.251595397352
8	31	30	16.75036351782
8	32	31	16.49744001053
8	33	32	16.657986721292
8	34	33	16.707620288955
8	35	34	16.697776341287
8	36	35	16.095821592573
8	37	36	16.673899179941
8	38	37	16.125612231984
8	39	38	16.948479728296
8	40	39	16.6226201221
8	41	40	15.976103766949
8	42	41	15.962218129064
8	43	42	16.359467863908
8	44	43	16.653669810051
8	45	44	16.06212435168
8	46	45	16.926627492637
8	47	46	16.814110769622
8	48	47	16.228979122417
8	49	48	16.972680709546
8	50	49	16.304788010137
8	51	50	15.965356609935
8	52	51	16.715197211562
8	53	52	16.023619017971
8	54	53	16.510197272513
8	55	54	16.685146628588
8	56	55	16.054908627516
8	57	56	16.09441064446
8	58	57	16.344673437381
8	59	58	16.616332825355
8	60	59	16.723108136223
8	61	60	16.804982012336
8	62	61	16.818868912093
8	63	62	17.117554276984
8	64	63	17.116450147855
8	65	64	16.880066600221
8	66	65	16.784633422003
8	67	66	16.714159397769
8	68	67	17.055976175389
8	69	68	16.558196498302
8	70	69	17.146011528477
8	71	70	16.904610715376
8	72	71	16.286852163414
8	73	72	15.995814996178
8	74	73	16.885676969855
8	76	74	16.196445452433
8	77	75	16.384716911323
8	78	76	16.092978286894
8	79	77	16.323158008105
8	80	78	16.851607620728
8	81	79	16.352387698542
8	82	80	16.24295045532
8	83	81	16.780722350848
8	84	82	17.145714409777
8	86	83	16.590411656478
8	87	84	17.134958562825
8	88	85	16.240747332328
8	89	86	16.902768582583
9	4	3	2.3478866785532
9	5	4	2.1277886533644
9	6	5	2.5967283024685
9	7	6	1.311040297593
9	8	7	2.2928356418386
9	9	8	2.317860931973
9	10	9	1.558204368758
9	11	10	1.9523198581301
9	12	11	2.5614458827768
9	13	12	2.0737677466124
9	14	13	1.6027626623632
9	15	14	1.3958438505884
9	16	15	2.5925925980788
9	17	16	1.8257392659874
9	18	17	-0.32700058508199
9	19	18	-0.92385197230504
9	20	19	-4.2388554984354
9	21	20	-4.3535617167968
9	22	21	-4.2398748057778
9	23	22	-4.1840101447267
9	24	23	-4.0314166767988
9	25	24	-0.35124340424202
9	26	25	1.6704312207471
9	27	26	-0.95324870685581
9	28	27	1.6272980613934
9	29	28	2.4367390892236
9	30	29	2.2777452077484
9	31	30	2.0269472099841
9	32	31	2.411018808349
9	33	32	2.3197498838883
9	34	33	1.8318783455994
9	35	34	2.2629718214041
9	36	35	1.6989207046106
9	37	36	1.8919562835945
9	38	37	0.38665735707361
9	39	38	0.28688585606869
9	40	39	0.7542166674044
9	41	40	-0.29061530812178
9	42	41	-0.18449489471968
9	43	42	0.10863017104566
9	44	43	-4.2623873535565
9	45	44	-4.5
9	46	45	-4.5
9	47	46	-4.5
9	48	47	-4.4810709323214
9	49	48	-3.8242598869372
9	50	49	2.0770440255059
9	51	50	1.7215491539333
9	52	51	2.1747559851734
9	53	52	1.8890440943418
9	54	53	2.5926332155941
9	55	54	1.5627312774537
9	56	55	1.0812621665502
9	57	56	-0.013555045519027
9	58	57	0.58956595039927
9	59	58	-0.60029132778291
9	60	59	0.29336423005443
9	61	60	0.25080426868517
9	62	61	0.23677112250589
9	63	62	-0.60319713503122
9	64	63	-0.30385770534631
9	65	64	0.51514339717105
9	66	65	-0.50724103865214
9	67	66	0.12190512844827
9	68	67	0.2570956885349
9	69	68	0.046403694734906
9	70	69	0.7070680091856
9	71	70	-0.075889071845449
9	72	71	-0.96927340009715
9	73	72	0.90386107654777
9	74	73	-0.20647839293815
9	76	74	-4.5
9	77	75	-4.5
9	78	76	-4.5
9	79	77	-4.5
9	80	78	-0.19795304820603
9	81	79	0
9	82	80	0
9	83	81	0
9	84	82	0
9	86	83	0
9	87	84	0
9	88	85	0
9	89	86	0
10	4	3	3.8208455939494
10	5	4	4.7989722357191
10	6	5	7.331722189765
10	7	6	5.0162708065594
10	8	7	8.9489528649057
10	9	8	10.556511999817
10	10	9	8.5701592424242
10	11	10	11.327634710685
10	12	11	16.036553855092
10	13	12	14.973135338581
10	14	13	13.292622359995
10	15	14	12.844477702239
10	16	15	22.687026737382
10	17	16	18.705048596271
10	18	17	2.7499489928324
10	19	18	0.973
10	20	19	0.973
10	21	20	0.973
10	22	21	0.973
10	23	22	0.973
10	24	23	0.973
10	25	24	0.973
10	26	25	5.5344072149758
10	27	26	0.973
10	28	27	5.7497229956766
10	29	28	9.3985659346524
10	30	29	10.39244114349
10	31	30	10.717141533659
10	32	31	14.03516987781
10	33	32	15.289535246459
10	34	33	13.88771234747
10	35	34	18.0680573899
10	36	35	15.66494739639
10	37	36	18.328088694158
10	38	37	7.7884558285037
10	39	38	7.1759176138976
10	40	39	10.938219745223
10	41	40	3.0899441755342
10	42	41	3.824261812516
10	43	42	6.008965994664
10	44	43	0.973
10	45	44	0.973
10	46	45	0.973
10	47	46	0.973
10	48	47	0.973
10	49	48	0.973
10	50	49	4.7215540408016
10	51	50	4.9852898797494
10	52	51	7.1845405275767
10	53	52	7.485383827151
10	54	53	11.452886721321
10	55	54	8.5223792171225
10	56	55	7.0314813793791
10	57	56	2.3976126260751
10	58	57	5.1116071066361
10	59	58	0.973
10	60	59	3.7532779946797
10	61	60	3.6201041926394
10	62	61	3.6056263540882
10	63	62	0.973
10	64	63	1.1621490641591
10	65	64	4.7309540654892
10	66	65	0.973
10	67	66	2.9691480521611
10	68	67	3.5910229953964
10	69	68	2.6944285943632
10	70	69	5.754158819668
10	71	70	2.2452381384903
10	72	71	0.973
10	73	72	6.5827671268287
10	74	73	1.6390400602877
10	76	74	0.973
10	77	75	0.973
10	78	76	0.973
10	79	77	0.973
10	80	78	0.973
10	81	79	0.973
10	82	80	0.973
10	83	81	0.973
10	84	82	0.973
10	86	83	0.973
10	87	84	0.973
10	88	85	0.973
10	89	86	0.973
11	4	3	2.1753469938878
11	5	4	1.9198876491515
11	6	5	2.5276067882543
11	7	6	2.1987981781596
11	8	7	2.419047049596
11	9	8	1.6841966199689
11	10	9	1.7046559911221
11	11	10	1.4744299653452
11	12	11	1.3766858822666
11	13	12	2.4986099615227
11	14	13	2.3940121726831
11	15	14	2.2184665654786
11	16	15	2.1077230894359
11	17	16	-0.041778878797778
11	18	17	-0.1998786861077
11	19	18	0.28017544953618
11	20	19	-1.0707682662876
11	21	20	0.601814693911
11	22	21	-0.53064595195465
11	23	22	0.12354237271938
11	24	23	-0.10808226151858
11	25	24	0.044610755587929
11	26	25	-0.25353432488628
11	27	26	0.4680812433362
11	28	27	0.25569272693247
11	29	28	-0.013717104541136
11	30	29	-0.36103710979224
11	31	30	-0.11301764028612
11	32	31	0.82969073068816
11	33	32	-0.12957079345361
11	34	33	0.1071348954225
11	35	34	0.045399069483391
11	36	35	-0.66919074098114
11	37	36	0.77466162464116
11	38	37	-0.77643766941037
11	39	38	0.087547567277216
11	40	39	0.32236764945555
11	41	40	-0.38316108414438
11	42	41	-0.28529995204881
11	43	42	0.66277969388757
11	44	43	-0.1281433837954
11	45	44	0.35494783890899
11	46	45	-0.89850531301927
11	47	46	0.045482489862479
11	48	47	0.32968827458098
11	49	48	-0.40766898668371
11	50	49	0.71138005454559
11	51	50	-0.45609256173484
11	52	51	0.16915534816217
11	53	52	0.48169709420763
11	54	53	0.2107870283071
11	55	54	-0.3704299839912
11	56	55	-0.69515377653297
11	57	56	0.34115472752601
11	58	57	0.46465376466513
11	59	58	-0.20109618245624
11	60	59	0.36158290207386
11	61	60	-1.07884576777
11	62	61	1.067125759623
11	63	62	-1.1035758203594
11	64	63	0.23110840832814
11	65	64	0.25459769091103
11	66	65	0.63168503346387
11	67	66	-0.66470939044375
11	68	67	0.48338557127863
11	69	68	-0.54865404895973
11	70	69	0.82718976105098
11	71	70	-0.43771864799783
11	72	71	-0.51123542152345
11	73	72	-0.024717469885946
11	74	73	0.51036400354933
11	76	74	-3.4587086344925
11	77	75	-4.3200591959874
11	78	76	-4.5
11	79	77	-4.5
11	80	78	-3.7712124997406
11	81	79	-4.5
11	82	80	0.016284218803048
11	83	81	0.14555169981904
11	84	82	1.5972831639228
11	86	83	2.211610493972
11	87	84	2.5730224694125
11	88	85	1.9570330932038
11	89	86	1.7762572988868
12	4	3	3.6860301118415
12	5	4	4.406775890087
12	6	5	7.0480482036309
12	7	6	7.6730146079009
12	8	7	9.8932710301122
12	9	8	8.3551498949873
12	10	9	9.3351826120315
12	11	10	9.1181136856843
12	12	11	9.3468006701465
12	13	12	16.629793098128
12	14	13	17.930940588977
12	15	14	18.589065930858
12	16	15	19.500118095095
12	17	16	4.4611645359413
12	18	17	3.311271434681
12	19	18	6.7367946424192
12	20	19	0.973
12	21	20	8.7898922242533
12	22	21	0.91446117998644
12	23	22	5.3732003071852
12	24	23	3.7745356644962
12	25	24	4.8196313417238
12	26	25	2.7482223908006
12	27	26	7.7701387666952
12	28	27	6.4058715188568
12	29	28	4.5466189555326
12	30	29	2.0890203345935
12	31	30	3.7476407877552
12	32	31	10.522408416623
12	33	32	3.8044427396791
12	34	33	5.4794799607306
12	35	34	5.062737504153
12	36	35	0.0020801273826798
12	37	36	10.198942491779
12	38	37	-0.72885369673148
12	39	38	5.1835482052692
12	40	39	6.9017506860794
12	41	40	1.9555406328841
12	42	41	2.5661312372643
12	43	42	9.2523457058592
12	44	43	3.7549366928149
12	45	44	7.2073451295728
12	46	45	0.973
12	47	46	4.8094767719817
12	48	47	6.8455846184115
12	49	48	1.7330547609211
12	50	49	9.5914398551094
12	51	50	1.4467342059275
12	52	51	5.7528447563846
12	53	52	8.0804066763881
12	54	53	6.2648988973663
12	55	54	2.1196977157372
12	56	55	-0.19994890573049
12	57	56	6.9186466814054
12	58	57	7.942637777994
12	59	58	3.2711113300229
12	60	59	7.2854098302498
12	61	60	0.973
12	62	61	12.208441385477
12	63	62	0.973
12	64	63	6.0822178890041
12	65	64	6.3254690755777
12	66	65	9.173411174742
12	67	66	0.038478142117564
12	68	67	8.0653831413407
12	69	68	0.82177676345678
12	70	69	10.586211542657
12	71	70	1.6424872726382
12	72	71	1.0589317976375
12	73	72	4.3519473044424
12	74	73	8.178832260032
12	76	74	0.973
12	77	75	0.973
12	78	76	0.973
12	79	77	0.973
12	80	78	0.973
12	81	79	0.973
12	82	80	1.3016734775531
12	83	81	1.4262553474413
12	84	82	3.43513425926
12	86	83	5.5361673643301
12	87	84	7.9691741359387
12	88	85	7.5512679242611
12	89	86	7.9540555157993
13	4	3	2.3593932940857
13	5	4	2.5662959037116
13	6	5	1.388996877335
13	7	6	1.3679502059007
13	8	7	1.9698261749232
13	9	8	2.1833026328357
13	10	9	2.3339567731367
13	11	10	0.81123580447156
13	12	11	-0.19093975236174
13	13	12	-0.34100925808307
13	14	13	0.020233164285308
13	15	14	-0.35328413860407
13	16	15	0.49143550952431
13	17	16	-0.12731973323971
13	18	17	0.50576859598513
13	19	18	-0.58444334992673
13	20	19	-0.015005821757949
13	21	20	0.14122483404353
13	22	21	0.10631521148607
13	23	22	0.29197226148099
13	24	23	-0.43902268898674
13	25	24	0.31365775081795
13	26	25	-0.35993230720051
13	27	26	0.58956203251146
13	28	27	-0.18057420379482
13	29	28	-1.0047100127675
13	30	29	0.37350301095284
13	31	30	0.4987681204686
13	32	31	-0.25292350728996
13	33	32	0.16054671076127
13	34	33	0.04963356766384
13	35	34	-0.0098439476685606
13	36	35	-0.60195474871434
13	37	36	0.5780775873689
13	38	37	-0.54828694795724
13	39	38	0.82286749631166
13	40	39	-0.32585960619617
13	41	40	-0.64651635515038
13	42	41	-0.013885637884959
13	43	42	0.39724973484408
13	44	43	0.29420194614213
13	45	44	-0.59154545837082
13	46	45	0.86450314095709
13	47	46	-0.11251672301441
13	48	47	-0.58513164720498
13	49	48	0.74370158712845
13	50	49	-0.66789269940928
13	51	50	-0.33943140020128
13	52	51	0.74984060162678
13	53	52	-0.69157819359098
13	54	53	0.48657825454138
13	55	54	0.17494935607538
13	56	55	-0.63023800107185
13	57	56	0.039502016943882
13	58	57	0.25026279292069
13	59	58	0.27165938797407
13	60	59	0.1067753108684
13	61	60	0.081873876112514
13	62	61	0.0138868997572
13	63	62	0.29868536489084
13	64	63	-0.0011041291290894
13	65	64	-0.23638354763389
13	66	65	-0.09543317821808
13	67	66	-0.070474024233409
13	68	67	0.34181677761953
13	69	68	-0.49777967708651
13	70	69	0.58781503017526
13	71	70	-0.24140081310179
13	72	71	-0.61775855196174
13	73	72	-0.29103716723621
13	74	73	0.88986197367776
13	76	74	-0.68923151742201
13	77	75	0.18827145888936
13	78	76	-0.2917386244284
13	79	77	0.23017972121015
13	80	78	0.52844961262308
13	81	79	-0.49921992218588
13	82	80	-0.10943724322133
13	83	81	0.53777189552784
13	84	82	0.36499205892905
13	86	83	-0.55530275329948
13	87	84	0.54454690634739
13	88	85	-0.89421123049688
13	89	86	0.66202125025448
14	4	3	3.8274214472374
14	5	4	5.7807473689515
14	6	5	4.3608854892457
14	7	6	4.8664979855321
14	8	7	7.3686444580523
14	9	8	9.3229951027254
14	10	9	11.398474958176
14	11	10	5.7121584429848
14	12	11	1.5872525382386
14	13	12	0.96417741321469
14	14	13	2.4017094701038
14	15	14	0.973
14	16	15	4.3092643611688
14	17	16	1.8158864965417
14	18	17	4.4608394980003
14	19	18	0.973
14	20	19	2.251642325092
14	21	20	2.8921285251623
14	22	21	2.7687840996096
14	23	22	3.5720312706024
14	24	23	0.973
14	25	24	3.6352200366052
14	26	25	0.973
14	27	26	4.8165301385895
14	28	27	1.6342494773924
14	29	28	0.973
14	30	29	3.7533677194347
14	31	30	4.3656390374684
14	32	31	1.3150265763427
14	33	32	2.9851202035638
14	34	33	2.5466674354154
14	35	34	2.3059664403764
14	36	35	0.973
14	37	36	4.6655385001222
14	38	37	0.973
14	39	38	5.7384092979076
14	40	39	1.0307629915763
14	41	40	0.973
14	42	41	2.2023105251069
14	43	42	3.8698544647023
14	44	43	3.520842920958
14	45	44	0.973
14	46	45	5.9011292425827
14	47	46	1.9043036720474
14	48	47	0.973
14	49	48	5.4224839084265
14	50	49	0.973
14	51	50	0.95008662229229
14	52	51	5.3683977820208
14	53	52	0.973
14	54	53	4.2582734731505
14	55	54	3.047488096923
14	56	55	0.973
14	57	56	2.424734578695
14	58	57	3.2876367748447
14	59	58	3.4232586220596
14	60	59	2.7790956990311
14	61	60	2.6906780423281
14	62	61	2.4171348855605
14	63	62	3.6312645960775
14	64	63	2.3943912053141
14	65	64	1.4069827175673
14	66	65	1.9704800798613
14	67	66	2.0637602900302
14	68	67	3.7961703122102
14	69	68	0.973
14	70	69	4.8317388617324
14	71	70	1.3882690697962
14	72	71	0.973
14	73	72	1.1377793912951
14	74	73	5.9905746785454
14	76	74	0.973
14	77	75	3.0501693585075
14	78	76	1.1398627543517
14	79	77	3.2047059542522
14	80	78	4.511156667078
14	81	79	0.973
14	82	80	1.8610457993042
14	83	81	4.5308549589566
14	84	82	3.9109276048108
14	86	83	0.973
14	87	84	4.6500631148107
14	88	85	0.973
14	89	86	5.0682920128679
15	5	4	1398.7208418272
15	6	5	1396.6067906146
15	7	6	1392.7670019967
15	8	7	1386.6078612853
15	9	8	1379.2505643731
15	10	9	1370.6685911378
15	11	10	1360.6388324457
15	12	11	1348.8041388716
15	13	12	1333.6880999595
15	14	13	1316.6933611803
15	15	14	1298.1883198261
15	16	15	1278.2387964201
15	17	16	1256.4467479785
15	18	17	1231.4077405374
15	19	18	1204.4783328011
15	20	19	1177.1782545315
15	21	20	1149.5947529652
15	22	21	1122.5788326202
15	23	22	1096.0072626613
15	24	23	1073.9427436144
15	25	24	1055.2768597573
15	26	25	1040.1743211622
15	27	26	1028.9433598773
15	28	27	1021.7391822306
15	29	28	1013.4818559855
15	30	29	1005.8535664182
15	31	30	997.18029644178
15	32	31	987.22582985203
15	33	32	975.14944498743
15	34	33	961.50437923087
15	35	34	945.65802419193
15	36	35	927.97445413522
15	37	36	908.67600625178
15	38	37	887.282125182
15	39	38	863.71135425912
15	40	39	841.99358122763
15	41	40	825.80662184432
15	42	41	812.31900158439
15	43	42	799.54973355962
15	44	43	787.62009097062
15	45	44	770.34460846767
15	46	45	748.14511178476
15	47	46	724.85015328587
15	48	47	701.37126367671
15	49	48	679.35184674051
15	50	49	661.14645644822
15	51	50	645.64714276288
15	52	51	633.71698874395
15	53	52	625.30558268976
15	54	53	620.06860417258
15	55	54	616.1018789614
15	56	55	619.0893210343
15	57	56	623.73601645347
15	58	57	629.75519230297
15	59	58	636.02924984134
15	60	59	642.3422015098
15	61	60	649.02755159818
15	62	61	655.26380847244
15	63	62	660.84019734098
15	64	63	664.14628165885
15	65	64	667.61018045354
15	66	65	671.31206402353
15	67	66	673.70651711285
15	68	67	675.53296658948
15	69	68	676.7810723122
15	70	69	677.77435011426
15	71	70	678.57042966788
15	72	71	678.9971785328
15	73	72	678.97017144491
15	74	73	678.26890467539
15	76	74	678.13210533555
15	77	75	678.28182706172
15	78	76	678.4404749083
15	79	77	678.59131816966
15	80	78	678.73988248579
15	81	79	678.89599553779
15	82	80	675.88026755021
15	83	81	676.06066148297
15	84	82	676.22878079474
15	86	83	676.39699798519
15	87	84	676.56493374907
15	88	85	676.73934308091
15	89	86	676.91080845857
16	5	4	1794.4544590726
16	6	5	1793.4062420131
16	7	6	1791.5023468234
16	8	7	1788.448439554
16	9	8	1784.794351203
16	10	9	1779.2126651329
16	11	10	1772.6893443484
16	12	11	1764.9921000836
16	13	12	1758.6961888824
16	14	13	1752.5714877805
16	15	14	1746.6456925968
16	16	15	1739.7978682869
16	17	16	1733.2527376778
16	18	17	1732.9940091262
16	19	18	1736.649561698
16	20	19	1740.6448388963
16	21	20	1745.1530707808
16	22	21	1749.0733909109
16	23	22	1749.7259018164
16	24	23	1748.3536052572
16	25	24	1746.9028295955
16	26	25	1745.6646660062
16	27	26	1744.7439090588
16	28	27	1745.0224597974
16	29	28	1745.3234245043
16	30	29	1742.4353636541
16	31	30	1742.1465661787
16	32	31	1740.421194096
16	33	32	1737.7953415046
16	34	33	1736.5004214804
16	35	34	1736.2526009145
16	36	35	1735.9760482103
16	37	36	1735.674240491
16	38	37	1735.3396623688
16	39	38	1734.971039946
16	40	39	1724.9813524626
16	41	40	1702.5311349305
16	42	41	1678.7890921961
16	43	42	1654.3041752935
16	44	43	1629.4599849496
16	45	44	1609.6089748598
16	46	45	1592.914422721
16	47	46	1577.0603221093
16	48	47	1561.7970149676
16	49	48	1549.9284122642
16	50	49	1539.6016080646
16	51	50	1530.2496813661
16	52	51	1521.8633809115
16	53	52	1515.6427399133
16	54	53	1511.4463330226
16	55	54	1503.9661234927
16	56	55	1494.7368600518
16	57	56	1486.7622278518
16	58	57	1476.7600365292
16	59	58	1464.8446575109
16	60	59	1450.791136473
16	61	60	1435.9086040148
16	62	61	1420.8521842277
16	63	62	1405.7574201286
16	64	63	1390.3980521637
16	65	64	1375.0950152946
16	66	65	1359.2132502205
16	67	66	1342.9302895702
16	68	67	1326.5617287715
16	69	68	1310.1582784465
16	70	69	1293.6466474512
16	71	70	1277.1345529035
16	72	71	1261.3194431831
16	73	72	1245.5529357366
16	74	73	1229.5215175383
16	76	74	1213.1834611883
16	77	75	1197.2346945849
16	78	76	1180.3350932913
16	79	77	1164.2668576998
16	80	78	1148.44138157
16	81	79	1131.8117935087
16	82	80	1114.4311614743
16	83	81	1097.639739339
16	84	82	1081.9908630734
16	86	83	1066.1627336617
16	87	84	1050.1598548284
16	88	85	1033.5400989153
16	89	86	1017.2008773021
17	5	4	1001.5438852106
17	6	5	1001.1685028984
17	7	6	1000.2869126271
17	8	7	998.98073530204
17	9	8	997.21431878998
17	10	9	994.94301898354
17	11	10	992.11765527841
17	12	11	988.92442554583
17	13	12	985.33780887697
17	14	13	981.3949177241
17	15	14	977.45932723486
17	16	15	973.34442749705
17	17	16	968.65426313834
17	18	17	965.53434687664
17	19	18	964.42030726557
17	20	19	965.05483080264
17	21	20	969.5654328844
17	22	21	978.33191166305
17	23	22	989.27446758572
17	24	23	999.87008298989
17	25	24	1010.7832646538
17	26	25	1021.8378461503
17	27	26	1032.9043152324
17	28	27	1044.8682847378
17	29	28	1057.5498333783
17	30	29	1073.3768414119
17	31	30	1088.7780612758
17	32	31	1103.5344519042
17	33	32	1119.0270837337
17	34	33	1134.8972213475
17	35	34	1150.5049504292
17	36	35	1166.0253735872
17	37	36	1180.7234145448
17	38	37	1194.8983423218
17	39	38	1209.3239761109
17	40	39	1220.1552191186
17	41	40	1229.7482187709
17	42	41	1240.1016255799
17	43	42	1249.9687038605
17	44	43	1266.3140296518
17	45	44	1286.7710833558
17	46	45	1308.304902954
17	47	46	1331.1445857737
17	48	47	1353.8097184208
17	49	48	1374.7799931523
17	50	49	1393.1448183062
17	51	50	1412.2508204808
17	52	51	1430.874897084
17	53	52	1445.6485290067
17	54	53	1459.7741730701
17	55	54	1474.0541683449
17	56	55	1488.833542433
17	57	56	1503.5028091613
17	58	57	1519.070960502
17	59	58	1536.6565993692
17	60	59	1556.2953578332
17	61	60	1574.5180113041
17	62	61	1592.142957862
17	63	62	1607.7838947874
17	64	63	1622.4682215895
17	65	64	1634.5785211618
17	66	65	1645.456335838
17	67	66	1651.4288547487
17	68	67	1655.43581696
17	69	68	1660.0234769558
17	70	69	1663.0274327357
17	71	70	1664.5287981253
17	72	71	1664.1331635223
17	73	72	1659.2090656816
17	74	73	1652.4264376189
17	76	74	1648.2757914353
17	77	75	1644.4635204343
17	78	76	1641.9008165949
17	79	77	1642.1187074465
17	80	78	1646.9747609288
17	81	79	1656.973890125
17	82	80	1667.8282778149
17	83	81	1679.5094833801
17	84	82	1690.6823426188
17	86	83	1701.5152703782
17	87	84	1712.8306189302
17	88	85	1723.939625348
17	89	86	1735.4765011078
18	5	4	1730.622261498
18	6	5	1728.7759517559
18	7	6	1724.4398691713
18	8	7	1718.0154643932
18	9	8	1709.327383179
18	10	9	1698.9574574022
18	11	10	1686.1407497695
18	12	11	1671.6552901411
18	13	12	1655.3853079254
18	14	13	1637.4991564745
18	15	14	1617.9042224703
18	16	15	1595.9770118756
18	17	16	1572.4204691641
18	18	17	1548.7720692132
18	19	18	1525.2441441529
18	20	19	1501.8396309637
18	21	20	1477.8415893481
18	22	21	1455.6125474492
18	23	22	1434.0388821873
18	24	23	1413.0121155175
18	25	24	1391.3782858994
18	26	25	1370.3464900518
18	27	26	1349.4149069333
18	28	27	1328.9283298362
18	29	28	1309.1317841725
18	30	29	1291.3353024091
18	31	30	1273.905182224
18	32	31	1254.9159922875
18	33	32	1237.1536459651
18	34	33	1218.9584881905
18	35	34	1201.0641825419
18	36	35	1182.7808839814
18	37	36	1163.8675605655
18	38	37	1145.2595588925
18	39	38	1126.0251365338
18	40	39	1104.3273338052
18	41	40	1082.6447142934
18	42	41	1061.4122289597
18	43	42	1039.8479596352
18	44	43	1022.4078076882
18	45	44	1010.2236233326
18	46	45	1000.3454299219
18	47	46	993.56598770042
18	48	47	986.72104818534
18	49	48	976.29051314609
18	50	49	961.71422007434
18	51	50	946.67571702257
18	52	51	931.8365972124
18	53	52	912.82705121317
18	54	53	893.3530125792
18	55	54	874.67121416758
18	56	55	856.02438249371
18	57	56	836.99957711776
18	58	57	818.32411935198
18	59	58	802.92821809854
18	60	59	788.5075771242
18	61	60	773.23857539613
18	62	61	756.99491843281
18	63	62	738.38846031028
18	64	63	719.5935965504
18	65	64	699.33587618353
18	66	65	677.79577981035
18	67	66	654.48646418652
18	68	67	631.33820852119
18	69	68	607.81109199581
18	70	69	584.62032140948
18	71	70	561.02306343832
18	72	71	537.68409340265
18	73	72	513.80682281823
18	74	73	491.11888796263
18	76	74	468.00684335611
18	77	75	444.82788282266
18	78	76	420.92551354816
18	79	77	396.44987526005
18	80	78	373.60447969569
18	81	79	351.78763859216
18	82	80	331.10578295082
18	83	81	310.57035818556
18	84	82	289.59404628339
18	86	83	268.11468747432
18	87	84	246.38020120255
18	88	85	225.80612405776
18	89	86	205.16558664189
19	5	4	1735.5864468953
19	6	5	1734.2320537383
19	7	6	1731.4164912959
19	8	7	1727.1257942694
19	9	8	1721.2758856413
19	10	9	1714.2109140084
19	11	10	1705.5580802183
19	12	11	1694.8001474329
19	13	12	1682.6306296786
19	14	13	1667.9751178047
19	15	14	1651.890178535
19	16	15	1636.1951562727
19	17	16	1619.8829252547
19	18	17	1603.300394556
19	19	18	1586.7427271812
19	20	19	1570.325525014
19	21	20	1556.6223044728
19	22	21	1539.7575759723
19	23	22	1522.3263642626
19	24	23	1505.8374565977
19	25	24	1489.6443191296
19	26	25	1472.8152634035
19	27	26	1456.2409283997
19	28	27	1440.250721702
19	29	28	1424.7668651505
19	30	29	1408.341397477
19	31	30	1391.5041258731
19	32	31	1375.3665371892
19	33	32	1358.9570691593
19	34	33	1342.2195614527
19	35	34	1325.0782791729
19	36	35	1308.3900831993
19	37	36	1291.73125648
19	38	37	1275.4867952835
19	39	38	1259.2169496891
19	40	39	1242.8409008968
19	41	40	1226.3617533673
19	42	41	1210.1613248731
19	43	42	1193.7745133384
19	44	43	1176.9471345996
19	45	44	1160.7682439634
19	46	45	1144.5440125547
19	47	46	1124.9959656718
19	48	47	1108.8198153965
19	49	48	1093.7633353087
19	50	49	1078.1415325015
19	51	50	1062.905376142
19	52	51	1047.4747040584
19	53	52	1032.1915311119
19	54	53	1017.749508582
19	55	54	1004.2369004193
19	56	55	990.87570689755
19	57	56	976.81263398598
19	58	57	963.60566135318
19	59	58	950.1089913858
19	60	59	937.60315053452
19	61	60	924.55845058661
19	62	61	911.78988701174
19	63	62	900.02225441177
19	64	63	888.14773747504
19	65	64	875.36861135815
19	66	65	863.38575362865
19	67	66	851.88399551474
19	68	67	840.51905893732
19	69	68	829.24001986194
19	70	69	817.17263936741
19	71	70	804.5453051675
19	72	71	791.8383269809
19	73	72	780.14551815868
19	74	73	768.57964773712
19	76	74	759.42423916494
19	77	75	747.19276409938
19	78	76	734.8407655998
19	79	77	723.65969752356
19	80	78	712.74502855262
19	81	79	701.22705684029
19	82	80	691.30919448561
19	83	81	683.87964100046
19	84	82	674.56959063249
19	86	83	672.5906160997
19	87	84	669.43973973574
19	88	85	667.33867072093
19	89	86	665.98813048432
20	5	4	26.25514509289
20	6	5	27.569460471557
20	7	6	30.301707750325
20	8	7	34.465438981349
20	9	8	40.142243263628
20	10	9	46.998155683719
20	11	10	55.394943913493
20	12	11	64.088619938856
20	13	12	73.769041131581
20	14	13	83.123924866122
20	15	14	93.137722165838
20	16	15	102.32122341866
20	17	16	111.86586703163
20	18	17	121.46356690483
20	19	18	130.76592353069
20	20	19	139.9893646049
20	21	20	151.11749242964
20	22	21	158.84574184622
20	23	22	166.83589867916
20	24	23	174.87148149613
20	25	24	183.12508036138
20	26	25	191.70280506221
20	27	26	200.15069929203
20	28	27	208.63801685067
20	29	28	218.01463502784
20	30	29	227.98437182477
20	31	30	237.2091487153
20	32	31	245.97336069287
20	33	32	254.88522844893
20	34	33	263.46089366743
20	35	34	272.19017098648
20	36	35	280.68871200754
20	37	36	289.17229659996
20	38	37	297.38792733816
20	39	38	305.20395944956
20	40	39	313.07101156602
20	41	40	321.56651995848
20	42	41	330.06579176418
20	43	42	338.66284617623
20	44	43	347.49705923002
20	45	44	356.14938841721
20	46	45	364.82596545286
20	47	46	371.65478885623
20	48	47	381.91197973102
20	49	48	393.50179097371
20	50	49	404.29407648039
20	51	50	414.81993905113
20	52	51	425.3836942396
20	53	52	435.78236326046
20	54	53	446.97761158953
20	55	54	459.28013543917
20	56	55	471.53901719001
20	57	56	484.68868981299
20	58	57	497.03786609574
20	59	58	510.79937032068
20	60	59	523.83066666991
20	61	60	537.41273166301
20	62	61	551.78463681842
20	63	62	565.77849321064
20	64	63	579.53410822653
20	65	64	593.54782788352
20	66	65	608.00328213464
20	67	66	622.30714802044
20	68	67	636.44085931867
20	69	68	650.46774639603
20	70	69	664.4139765136
20	71	70	678.1835189172
20	72	71	692.03990952127
20	73	72	706.68621818161
20	74	73	720.97238534011
20	76	74	736.90216741707
20	77	75	751.52338217132
20	78	76	766.28866777576
20	79	77	781.04274155341
20	80	78	795.6783927428
20	81	79	811.12302206135
20	82	80	827.12360387487
20	83	81	843.69481957846
20	84	82	859.5083116386
20	86	83	878.23829609374
20	87	84	896.06247608795
20	88	85	914.33119027174
20	89	86	932.37698029048
21	6	5	2.359660308552
21	7	6	4.2858927642228
21	8	7	6.8747056765947
21	9	8	8.2150886074873
21	10	9	10.237478159228
21	11	10	11.964548564469
21	12	11	14.117664278857
21	13	12	16.428971028561
21	14	13	18.068987318198
21	15	14	19.430854014424
21	16	15	21.094570719753
21	17	16	22.797525271843
21	18	17	25.184550707345
21	19	18	27.185566665884
21	20	19	27.592872094472
21	21	20	27.950810692568
21	22	21	27.319371307098
21	23	22	26.630851326307
21	24	23	22.130851326307
21	25	24	18.749195940752
21	26	25	15.153242620537
21	27	26	11.268667193893
21	28	27	7.2249222772964
21	29	28	8.2809857622542
21	30	29	8.1717314555098
21	31	30	8.931753706515
21	32	31	10.120293303891
21	33	32	12.358259834731
21	34	33	13.770967946141
21	35	34	15.847899111113
21	36	35	17.685293147489
21	37	36	19.30032832826
21	38	37	21.39596569404
21	39	38	23.573067663759
21	40	39	25.63523337502
21	41	40	27.676558107805
21	42	41	27.355313891794
21	43	42	27.614025293167
21	44	43	27.576372806814
21	45	44	27.309099458523
21	46	45	27.78148469079
21	47	46	28.177440537738
21	48	47	28.117973750589
21	49	48	25.022616162072
21	50	49	20.930446690255
21	51	50	18.104212063103
21	52	51	14.593457418514
21	53	52	10.461621290528
21	54	53	6.7247099192239
21	55	54	8.8211056662848
21	56	55	9.8410491665548
21	57	56	9.2372131025374
21	58	57	11.678548282776
21	59	58	13.495945674945
21	60	59	15.41277671237
21	61	60	16.321970065272
21	62	61	16.31217152987
21	63	62	16.102524303024
21	64	63	15.717735179405
21	65	64	15.697276716594
21	66	65	16.314325717402
21	67	66	16.488835362911
21	68	67	16.47704424498
21	69	68	16.462347285294
21	70	69	16.548408344372
21	71	70	16.540285525362
21	72	71	15.827492852819
21	73	72	15.78264301739
21	74	73	16.053469898396
21	76	74	16.350603923791
21	77	75	15.956149788348
21	78	76	16.907424649767
21	79	77	16.0756740823
21	80	78	15.832802239743
21	81	79	16.637286419871
21	82	80	15.489930177524
21	83	81	16.792446015829
21	84	82	15.649830477785
21	86	83	15.829075145566
21	87	84	16.003812300375
21	88	85	16.620725363431
21	89	86	16.340174699559
22	6	5	1.884088109131
22	7	6	4.4248055740958
22	8	7	6.5558580855839
22	9	8	8.8658528601518
22	10	9	10.615883198776
22	11	10	13.124460875872
22	12	11	14.833282744023
22	13	12	16.6606550731
22	14	13	18.315631569736
22	15	14	19.991343151312
22	16	15	22.311762365047
22	17	16	24.018972109172
22	18	17	23.918892886567
22	19	18	23.554339607766
22	20	19	23.504934605148
22	21	20	24.463228855033
22	22	21	23.924123011025
22	23	22	24.190189668031
22	24	23	23.545656728449
22	25	24	24.230637861539
22	26	25	23.783672004317
22	27	26	23.703702626059
22	28	27	23.72422848447
22	29	28	23.537207643579
22	30	29	23.847411279294
22	31	30	23.268245293673
22	32	31	24.09157697615
22	33	32	23.569581321541
22	34	33	24.143896478678
22	35	34	23.744683530026
22	36	35	23.984929120129
22	37	36	23.964407843382
22	38	37	23.39900603174
22	39	38	24.064323031374
22	40	39	24.352735398717
22	41	40	23.726759430005
22	42	41	23.622321109248
22	43	42	23.755077833177
22	44	43	24.364299198643
22	45	44	23.859619983712
22	46	45	23.827024198983
22	47	46	23.824663271739
22	48	47	23.680162622508
22	49	48	23.579233718275
22	50	49	23.47415068765
22	51	50	24.322171594233
22	52	51	23.888687717736
22	53	52	24.133605041269
22	54	53	24.058333996248
22	55	54	23.51974722001
22	56	55	23.79363055323
22	57	56	24.027163600487
22	58	57	24.334289315513
22	59	58	23.413301867091
22	60	59	24.373315911421
22	61	60	23.777565055418
22	62	61	23.968683661598
22	63	62	24.350254449838
22	64	63	23.923881621736
22	65	64	23.604684287806
22	66	65	24.140120912141
22	67	66	24.309893957812
22	68	67	23.522677530402
22	69	68	23.988952645923
22	70	69	23.384570259631
22	71	70	23.683808176855
22	72	71	23.36486045088
22	73	72	24.437930047962
22	74	73	23.680140022009
22	76	74	23.497436519743
22	77	75	23.49078351856
22	78	76	24.071739608127
22	79	77	24.505294968824
22	80	78	23.574198504498
22	81	79	24.011280978804
22	82	80	23.374753455988
22	83	81	23.625342785667
22	84	82	23.772839045741
22	86	83	24.056556328207
22	87	84	24.505726289407
22	88	85	23.381842035854
22	89	86	23.646011918185
23	6	5	1.8854387812782
23	7	6	3.9195196701214
23	8	7	5.9730415280908
23	9	8	8.1436062616762
23	10	9	9.8350847655674
23	11	10	12.045533685107
23	12	11	13.822974635288
23	13	12	15.535040841741
23	14	13	17.3722047691
23	15	14	18.931138494087
23	16	15	18.166656061366
23	17	16	18.881062132155
23	18	17	19.141695802018
23	19	18	18.973370395915
23	20	19	18.812411829002
23	21	20	18.434657255688
23	22	21	18.551148724311
23	23	22	19.17524365558
23	24	23	18.346593831165
23	25	24	18.175252245005
23	26	25	18.889009833324
23	27	26	18.603110118757
23	28	27	18.106354954804
23	29	28	18.102004981541
23	30	29	19.214366041182
23	31	30	19.200278629653
23	32	31	18.363915245689
23	33	32	18.673302810557
23	34	33	18.807109405228
23	35	34	19.236009551852
23	36	35	18.727554445003
23	37	36	18.69459616061
23	38	37	18.204344054486
23	39	38	18.049887251144
23	40	39	18.167709865735
23	41	40	18.541993007029
23	42	41	18.294581332255
23	43	42	18.505057227786
23	44	43	19.005393671419
23	45	44	18.347193388769
23	46	45	18.398610753438
23	47	46	18.874243302375
23	48	47	19.203657487652
23	49	48	18.984562850662
23	50	49	18.968739763682
23	51	50	18.500469411129
23	52	51	18.682151261193
23	53	52	18.467355058354
23	54	53	18.300165360875
23	55	54	18.256321714341
23	56	55	18.115610378457
23	57	56	19.234424149373
23	58	57	18.063513923727
23	59	58	19.261123423057
23	60	59	18.043735358224
23	61	60	18.813483865896
23	62	61	19.211118252028
23	63	62	18.266368445998
23	64	63	18.155530432274
23	65	64	18.947056331357
23	66	65	18.764627501054
23	67	66	18.336736233544
23	68	67	18.118607804773
23	69	68	17.981665276282
23	70	69	18.433965767862
23	71	70	18.664701964741
23	72	71	18.782425250707
23	73	72	18.73026436785
23	74	73	18.365852024953
23	76	74	18.936691302794
23	77	75	19.062767950829
23	78	76	19.250603861303
23	79	77	18.515573628654
23	80	78	18.257395355438
23	81	79	19.266563539824
23	82	80	18.843042792997
23	83	81	18.176611570164
23	84	82	18.15299963929
23	86	83	18.245088929019
23	87	84	18.13424959107
23	88	85	18.390556512296
23	89	86	18.096261865005
24	7	6	1.9262324556708
24	8	7	2.5888129123719
24	9	8	1.3403829308925
24	10	9	2.0223895517411
24	11	10	1.7270704052411
24	12	11	2.153115714388
24	13	12	2.3113067497034
24	14	13	1.6400162896374
24	15	14	1.3618666962255
24	16	15	1.6637167053297
24	17	16	1.7029545520898
24	18	17	2.3870254355017
24	19	18	2.0010159585392
24	20	19	0.40730542858784
24	21	20	0.35793859809637
24	22	21	-0.63143938547
24	23	22	-0.68851998079145
24	24	23	-4.5
24	25	24	-3.3816553855548
24	26	25	-3.5959533202147
24	27	26	-3.884575426644
24	28	27	-4.0437449165969
24	29	28	1.0560634849578
24	30	29	-0.10925430674442
24	31	30	0.76002225100529
24	32	31	1.1885395973756
24	33	32	2.2379665308399
24	34	33	1.41270811141
24	35	34	2.0769311649725
24	36	35	1.8373940363759
24	37	36	1.6150351807708
24	38	37	2.0956373657798
24	39	38	2.1771019697189
24	40	39	2.0621657112613
24	41	40	2.0413247327855
24	42	41	-0.32124421601184
24	43	42	0.25871140137315
24	44	43	-0.037652486353181
24	45	44	-0.26727334829047
24	46	45	0.47238523226697
24	47	46	0.39595584694762
24	48	47	-0.059466787148267
24	49	48	-3.0953575885179
24	50	49	-4.0921694718162
24	51	50	-2.8262346271524
24	52	51	-3.5107546445889
24	53	52	-4.1318361279865
24	54	53	-3.7369113713037
24	55	54	2.0963957470609
24	56	55	1.01994350027
24	57	56	-0.60383606401738
24	58	57	2.4413351802388
24	59	58	1.8173973921686
24	60	59	1.9168310374254
24	61	60	0.90919335290122
24	62	61	-0.0097985354019343
24	63	62	-0.20964722684585
24	64	63	-0.38478912361897
24	65	64	-0.020458462811074
24	66	65	0.61704900080804
24	67	66	0.17450964550953
24	68	67	-0.011791117931715
24	69	68	-0.014696959685534
24	70	69	0.086061059078201
24	71	70	-0.0081228190101683
24	72	71	-0.71279267254286
24	73	72	-0.044849835429341
24	74	73	0.27082688100636
24	76	74	0.29713402539491
24	77	75	-0.39445413544308
24	78	76	0.95127486141864
24	79	77	-0.83175056746695
24	80	78	-0.24287184255663
24	81	79	0.8044841801282
24	82	80	-1.1473562423473
24	83	81	1.3025158383052
24	84	82	-1.1426155380439
24	86	83	0.17924466778059
24	87	84	0.17473715480883
24	88	85	0.61691306305584
24	89	86	-0.28055066387169
25	7	6	3.3136299866642
25	8	7	5.7608063366258
25	9	8	4.2112511770165
25	10	9	6.6926784437219
25	11	10	6.825321793345
25	12	11	9.3766375382394
25	13	12	11.463521290418
25	14	13	9.6682773589652
25	15	14	9.1024595094385
25	16	15	11.452722119389
25	17	16	12.660682149564
25	18	17	18.288520695235
25	19	18	17.387573415983
25	20	19	7.090335647443
25	21	20	6.8867058659821
25	22	21	0.15409260052018
25	23	22	-0.27954473434168
25	24	23	0.973
25	25	24	0.973
25	26	25	0.973
25	27	26	0.973
25	28	27	0.973
25	29	28	3.6695380586746
25	30	29	1.3394500806252
25	31	30	3.2426794978944
25	32	31	4.5927928692123
25	33	32	8.5459481959599
25	34	33	6.7040611187966
25	35	34	10.174711636055
25	36	35	10.30538447695
25	37	36	10.217339695967
25	38	37	13.852976889601
25	39	38	15.825618322046
25	40	39	16.643160052044
25	41	40	18.019290187513
25	42	41	2.2028031845296
25	43	42	6.1090089972068
25	44	43	4.1272924224239
25	45	44	2.549792603538
25	46	45	7.5937503202597
[...]
340	71	70	2.3214842575137
340	72	71	1.5122334117535
340	73	72	1.3623860905878
340	74	73	2.2703872479731
340	76	74	2.5094412247883
340	77	75	2.2356512310682
340	78	76	0.63333552590457
340	79	77	-0.53916692268103
340	80	78	0.19774983045645
340	81	79	0.93989014565013
340	82	80	-0.12919140455779
340	83	81	0.040714664361438
340	84	82	-0.54998029756825
340	86	83	0.021605245885439
340	87	84	0.43636290959548
340	88	85	-0.33795410497114
340	89	86	0.54189301226288
341	70	69	2.6283931042105
341	71	70	4.5971596122692
341	72	71	4.1252576902876
341	73	72	4.4011283250869
341	74	73	7.6911565265015
341	76	74	10.057576757656
341	77	75	10.618358822788
341	78	76	4.7660135605961
341	79	77	0.973
341	80	78	3.0047538671564
341	81	79	6.1750921259375
341	82	80	1.8261426967002
341	83	81	2.5155868805248
341	84	82	0.973
341	86	83	2.3704695239211
341	87	84	4.0908527583071
341	88	85	0.96933457842352
341	89	86	4.5666748583367
342	71	70	1398.7208418272
342	72	71	1396.6353827558
342	73	72	1393.1943650426
342	74	73	1388.2398656355
342	76	74	1381.149446299
342	77	75	1372.9659677703
342	78	76	1362.9538838954
342	79	77	1350.8174044626
342	80	78	1336.2072196055
342	81	79	1319.7192282865
342	82	80	1301.0973966066
342	83	81	1280.5473059343
342	84	82	1257.4467486812
342	86	83	1231.9629331909
342	87	84	1205.0898714554
342	88	85	1178.5861969788
342	89	86	1153.3409120836
343	71	70	1794.4544590726
343	72	71	1793.4204189497
343	73	72	1791.714247667
343	74	73	1789.2576417109
343	76	74	1785.7419754566
343	77	75	1780.7068710452
343	78	76	1774.1950459015
343	79	77	1766.3015211453
343	80	78	1759.6399940068
343	81	79	1753.5355605756
343	82	80	1747.6024509288
343	83	81	1740.6397385278
343	84	82	1733.4821313071
343	86	83	1732.92875251
343	87	84	1736.5431051991
343	88	85	1740.4466114532
343	89	86	1744.5260633554
344	71	70	1735.5864468953
344	72	71	1734.5416919831
344	73	72	1732.4397462768
344	74	73	1728.8112093733
344	76	74	1723.4796131414
344	77	75	1717.0413768665
344	78	76	1709.0329010242
344	79	77	1699.5665996348
344	80	78	1688.4678006534
344	81	79	1676.3476929509
344	82	80	1664.4653998726
344	83	81	1651.8688523206
344	84	82	1639.0921841134
344	86	83	1626.4099901067
344	87	84	1613.8391923193
344	88	85	1601.4934364582
344	89	86	1589.3085497876
345	71	70	26.25514509289
345	72	71	27.268984716133
345	73	72	29.308731854971
345	74	73	32.829896909304
345	76	74	38.00372615084
345	77	75	44.251448906775
345	78	76	52.022946351587
345	79	77	60.297075701786
345	80	78	69.125777959583
345	81	79	77.810863778601
345	82	80	85.351118465147
345	83	81	93.150200600891
345	84	82	100.62610898304
345	86	83	108.0467384414
345	87	84	115.40218753228
345	88	85	122.47874423949
345	89	86	129.32440424036
346	71	70	1.7175434732344
346	72	71	3.862860668567
346	73	72	5.8169805779122
346	74	73	7.325703874859
346	76	74	9.3945862181718
346	77	75	11.303781122761
346	78	76	13.785281801107
346	79	77	16.307134193159
346	80	78	18.646943269135
346	81	79	20.160058339126
346	82	80	21.592154168594
346	83	81	23.327752024936
346	84	82	25.649944437644
346	86	83	27.628660136496
346	87	84	27.540018786897
346	88	85	26.664429011999
346	89	86	27.656171140901
347	72	71	2.1453171953326
347	73	72	1.9541199093452
347	74	73	1.5087232969468
347	76	74	2.0688823433127
347	77	75	1.9091949045891
347	78	76	2.4815006783465
347	79	77	2.5218523920514
347	80	78	2.3398090759758
347	81	79	1.5131150699919
347	82	80	1.4320958294673
347	83	81	1.7355978563428
347	84	82	2.322192412708
347	86	83	1.9787156988516
347	87	84	-0.088641349598763
347	88	85	-0.87558977489826
347	89	86	0.99174212890211
348	72	71	3.2988509571474
348	73	72	4.1482598347298
348	74	73	4.1633527431452
348	76	74	6.3239375090275
348	77	75	6.9897716983719
348	78	76	10.261177234432
348	79	77	12.208179923635
348	80	78	13.123384729401
348	81	79	10.191019471103
348	82	80	10.533767860274
348	83	81	13.165553474849
348	84	82	18.261252206708
348	86	83	17.566382636502
348	87	84	3.7797966100615
348	88	85	0.973
348	89	86	11.008340410131
349	72	71	2.3277463510167
349	73	72	3.8407929148758
349	74	73	5.5301099284785
349	76	74	7.9141796472482
349	77	75	9.6194447694346
349	78	76	11.943464187905
349	79	77	14.477666116762
349	80	78	16.140481923707
349	81	79	17.583366258978
349	82	80	19.544209797727
349	83	81	21.699727555085
349	84	82	24.228780841199
349	86	83	25.651511273137
349	87	84	27.123845652551
349	88	85	26.791777319938
349	89	86	25.574364850343
350	72	71	1.4543941086624
350	73	72	2.9261000989471
350	74	73	5.0512542548589
350	76	74	7.4220681413542
350	77	75	8.9626119954977
350	78	76	11.148528662813
350	79	77	12.575610683416
350	80	78	14.168211013125
350	81	79	14.917232646543
350	82	80	14.059132604307
350	83	81	14.803123864212
350	84	82	14.788723013789
350	86	83	14.679371126282
350	87	84	14.550432360411
350	88	85	14.216789518978
350	89	86	13.962617003947
351	73	72	1001.5438852106
351	74	73	1001.1507455951
351	76	74	1000.426436099
351	77	75	999.3836189795
351	78	76	997.8893282431
351	79	77	996.01937622779
351	80	78	993.53369318502
351	81	79	990.64360502041
351	82	80	987.46571082484
351	83	81	983.77650477524
351	84	82	979.60602510289
351	86	83	975.701469479
351	87	84	971.14208178903
351	88	85	966.16563949467
351	89	86	964.7477289855
352	73	72	1730.622261498
352	74	73	1728.6886128456
352	76	74	1725.1261123347
352	77	75	1719.9970390024
352	78	76	1712.6474025
352	79	77	1703.8401406769
352	80	78	1692.564327666
352	81	79	1679.4540102329
352	82	80	1665.0381172566
352	83	81	1648.3027584606
352	84	82	1629.3841963826
352	86	83	1607.81535183
352	87	84	1584.915640297
352	88	85	1559.921254921
352	89	86	1532.1591170255
353	73	72	1.5130465638591
353	74	73	1.6893170136027
353	76	74	2.3840697187698
353	77	75	1.7052651221864
353	78	76	2.3240194184706
353	79	77	2.5342019288568
353	80	78	1.6628158069449
353	81	79	1.4428843352711
353	82	80	1.960843538749
353	83	81	2.155517757358
353	84	82	2.5290532861138
353	86	83	1.4227304319385
353	87	84	1.4723343794135
353	88	85	-0.33206833261238
353	89	86	-1.2174124695958
354	73	72	2.7010368139812
354	74	73	3.6438440648178
354	76	74	6.0847495168929
354	77	75	5.6095631623166
354	78	76	8.5329369070826
354	79	77	10.930860214706
354	80	78	8.7451695565682
354	81	79	8.5747780212531
354	82	80	11.97833611874
354	83	81	14.373285299865
354	84	82	18.360198261419
354	86	83	12.702003619445
354	87	84	13.886307892804
354	88	85	2.0348797537519
354	89	86	0.973
355	73	72	1.4717059902847
355	74	73	2.1251541559119
355	76	74	2.3708138864953
355	77	75	1.5405438541435
355	78	76	2.1859166673152
355	79	77	1.4270820206031
355	80	78	1.5926003297092
355	81	79	0.74902163341776
355	82	80	-0.85810004223604
355	83	81	0.74399125990458
355	84	82	-0.01440085042268
355	86	83	-0.10935188750737
355	87	84	-0.12893876587041
355	88	85	-0.33364284143317
355	89	86	-0.25417251503095
356	73	72	2.2913020079644
356	74	73	3.9526398759998
356	76	74	5.746529086383
356	77	75	4.936423334728
356	78	76	7.6489204212944
356	79	77	6.2254580682341
356	80	78	7.494205089799
356	81	79	4.8290259492644
356	82	80	0.973
356	83	81	4.7779936210706
356	84	82	2.0708712602077
356	86	83	1.7234855603
356	87	84	1.6443465796134
356	88	85	0.973
356	89	86	1.1797309607515
357	74	73	1398.7208418272
357	76	74	1397.2741568359
357	77	75	1393.5232584662
357	78	76	1388.5984761731
357	79	77	1381.9030693552
357	80	78	1374.2643802701
357	81	79	1365.3987189184
357	82	80	1354.3579703491
357	83	81	1340.7486054611
357	84	82	1324.7955631108
357	86	83	1306.6189717412
357	87	84	1287.1168684422
357	88	85	1265.8575856378
357	89	86	1241.2308243561
358	74	73	1794.4544590726
358	76	74	1793.7371444311
358	77	75	1791.8773239895
358	78	76	1789.4354527692
358	79	77	1786.1156468886
358	80	78	1781.5513540988
358	81	79	1775.7851582471
358	82	80	1768.6042931008
358	83	81	1761.3414547726
358	84	82	1755.364540122
358	86	83	1749.3616823116
358	87	84	1742.9947850359
358	88	85	1735.4115223664
358	89	86	1732.0002783148
359	74	73	1735.5864468953
359	76	74	1734.6371729631
359	77	75	1731.929563458
359	78	76	1727.6578134917
359	79	77	1721.643903793
359	80	78	1714.1624913534
359	81	79	1705.1015786543
359	82	80	1694.3643895147
359	83	81	1683.108975378
359	84	82	1671.613482669
359	86	83	1659.4335810023
359	87	84	1647.9615886163
359	88	85	1635.9945902118
359	89	86	1623.9546669509
360	74	73	26.25514509289
360	76	74	27.176329108918
360	77	75	29.803817880162
360	78	76	33.949162712598
360	79	77	39.785115118173
360	80	78	47.045145466423
360	81	79	55.83793716314
360	82	80	64.435249959207
360	83	81	73.388534036769
360	84	82	80.815094614351
360	86	83	88.544205487015
360	87	84	95.436426164925
360	88	85	102.4385790134
360	89	86	109.48340179245
361	74	73	1.9732141093817
361	76	74	3.6353948086733
361	77	75	5.2340221449966
361	78	76	7.500021489081
361	79	77	9.0039095970104
361	80	78	11.546566477581
361	81	79	13.425120799616
361	82	80	14.762045665737
361	83	81	17.137206219928
361	84	82	19.372832316766
361	86	83	21.922556141345
361	87	84	23.349246931309
361	88	85	25.485040508071
361	89	86	27.805914762802
362	76	74	1.6621806992916
362	77	75	1.5986273363233
362	78	76	2.2659993440844
362	79	77	1.5038881079294
362	80	78	2.5426568805706
362	81	79	1.8785543220351
362	82	80	1.3369248661213
362	83	81	2.3751605541911
362	84	82	2.2356260968372
362	86	83	2.5497238245793
362	87	84	1.4266907899641
362	88	85	2.1357935767621
362	89	86	2.3208742547315
363	76	74	2.7460964793564
363	77	75	3.3922425259162
363	78	76	5.6065792613714
363	79	77	4.8751308923518
363	80	78	8.8847253041764
363	81	79	8.0591297498845
363	82	80	6.8756108882683
363	83	81	12.211205894636
363	84	82	13.154018087699
363	86	83	16.611890830914
363	87	84	11.440553848617
363	88	85	16.986292347814
363	89	86	19.990081877953
364	76	74	1.6147599134361
364	77	75	4.1866753047099
364	78	76	5.4969402994029
364	79	77	7.4732748308685
364	80	78	8.9117405938217
364	81	79	10.575891111093
364	82	80	13.170563370571
364	83	81	15.514374361606
364	84	82	17.035973247769
364	86	83	19.146198608796
364	87	84	20.515365314321
364	88	85	22.578899011924
364	89	86	24.95424746098
365	76	74	1.3214758776345
365	77	75	3.7692393371353
365	78	76	5.9466654926988
365	79	77	8.3719107070921
365	80	78	10.414808343582
365	81	79	12.613616739002
365	82	80	13.743751138553
365	83	81	14.368138642271
365	84	82	13.677924301021
365	86	83	14.41126317206
365	87	84	13.372049357753
365	88	85	13.851547354913
365	89	86	13.935956332657
366	77	75	2.5719153912738
366	78	76	1.310264994693
366	79	77	1.9763345314655
366	80	78	1.4384657629533
366	81	79	1.6641505172709
366	82	80	2.5946722594788
366	83	81	2.3438109910348
366	84	82	1.521598886163
366	86	83	2.1102253610268
366	87	84	1.3691667055245
366	88	85	2.0635336976033
366	89	86	2.375348449056
367	77	75	3.9137781410161
367	78	76	3.1263063768134
367	79	77	5.0685635415231
367	80	78	4.6947200120155
367	81	79	5.9710264828858
367	82	80	10.192162364019
367	83	81	10.966804220281
367	84	82	8.6357422933261
367	86	83	12.419052151375
367	87	84	9.6667458987605
367	88	85	14.4913165661
367	89	86	18.034585530219
368	77	75	2.4477634595009
368	78	76	2.1774261555634
368	79	77	2.4252452143934
368	80	78	2.0428976364899
368	81	79	2.1988083954202
368	82	80	1.1301343995506
368	83	81	0.62438750371803
368	84	82	-0.69021434125025
368	86	83	0.73333887103945
368	87	84	-1.039213814307
368	88	85	0.47949799716007
368	89	86	0.08440897774417
369	77	75	3.5202907366776
369	78	76	4.5368640040857
369	79	77	6.4613155265328
369	80	78	6.8443778961186
369	81	79	8.5879903839626
369	82	80	5.7561012016136
369	83	81	4.239213914592
369	84	82	0.973
369	86	83	4.6286587717774
369	87	84	0.973
369	88	85	3.6243789289936
369	89	86	2.31578837432
370	78	76	1001.5438852106
370	79	77	1001.0509983176
370	80	78	1000.0719247626
370	81	79	998.82908982537
370	82	80	997.30311174265
370	83	81	995.12131861537
370	84	82	992.55979971173
370	86	83	989.65350632476
370	87	84	986.33665319652
370	88	85	982.60542916261
370	89	86	978.55886586412
371	78	76	1730.622261498
371	79	77	1728.1980080295
371	80	78	1723.3824560336
371	81	79	1717.2695994128
371	82	80	1709.7641093864
371	83	81	1699.7662786694
371	84	82	1688.1464511675
371	86	83	1674.9626219254
371	87	84	1659.9163690383
371	88	85	1642.9904039076
371	89	86	1624.2586591273
372	78	76	1398.7208418272
372	79	77	1396.5272575477
372	80	78	1392.3995477155
372	81	79	1386.1071895359
372	82	80	1377.9725307978
372	83	81	1368.8403859462
372	84	82	1358.4320836346
372	86	83	1345.952875344
372	87	84	1329.8398448508
372	88	85	1312.2455287239
372	89	86	1292.5090337884
373	78	76	1794.4544590726
373	79	77	1793.3668068674
373	80	78	1791.3201507423
373	81	79	1788.2001898115
373	82	80	1783.9631225323
373	83	81	1778.0236067228
373	84	82	1771.2540824615
373	86	83	1763.2912694992
373	87	84	1757.2544142144
373	88	85	1751.1543620053
373	89	86	1744.7728985415
374	78	76	1735.5864468953
374	79	77	1733.985705808
374	80	78	1731.389549161
374	81	79	1727.7727533862
374	82	80	1722.5073081659
374	83	81	1716.1921631008
374	84	82	1708.4869390874
374	86	83	1698.7068436499
374	87	84	1689.8232263074
374	88	85	1676.1255273191
374	89	86	1660.0603600514
375	78	76	26.25514509289
375	79	77	27.808518732869
375	80	78	30.327852641805
375	81	79	33.837623998604
375	82	80	38.947259699796
375	83	81	45.075533631496
375	84	82	52.552752756807
375	86	83	60.980981196197
375	87	84	72.13884993841
375	88	85	81.741991097756
375	89	86	91.93626702883
376	79	77	2.4738574624993
376	80	78	4.9140856747748
376	81	79	6.2379351687618
376	82	80	7.6590640184702
376	83	81	10.233302916982
376	84	82	11.898841403215
376	86	83	13.500397765357
376	87	84	15.407541702897
376	88	85	17.332389371074
376	89	86	19.16556651555
377	79	77	2.4484334755223
377	80	78	4.6072644780623
377	81	79	7.0234002636978
377	82	80	9.1808216889622
377	83	81	10.893780591176
377	84	82	12.416115113441
377	86	83	14.81685593063
377	87	84	17.206821770896
377	88	85	18.627646257868
377	89	86	20.742829006421
378	79	77	2.2283775646007
378	80	78	3.6140867952956
378	81	79	5.0349095330806
378	82	80	7.3299799010158
378	83	81	8.7912578066578
378	84	82	10.72637446369
378	86	83	12.913106418215
378	87	84	14.267038131878
378	88	85	16.751886918978
378	89	86	19.026641297014
379	80	78	2.4402282122755
379	81	79	1.3238494939869
379	82	80	1.4211288497085
379	83	81	2.574238898512
379	84	82	1.665538486233
379	86	83	1.6015563621419
379	87	84	1.9071439375402
379	88	85	1.9248476681765
379	89	86	1.8331771444762
380	80	78	4.2479669830576
380	81	79	3.4235401156858
380	82	80	4.1441467464027
380	83	81	8.0513060200562
380	84	82	6.6157605152303
380	86	83	7.1993831178115
380	87	84	9.2727881362233
380	88	85	10.467410137659
380	89	86	11.152147467444
381	80	78	2.15883100254
381	81	79	2.4161357856356
381	82	80	2.1574214252643
381	83	81	1.7129589022137
381	84	82	1.522334522265
381	86	83	2.4007408171892
381	87	84	2.3899658402661
381	88	85	1.4208244869718
381	89	86	2.1151827485533
382	80	78	3.7383484963375
382	81	79	5.5704603965283
382	82	80	6.3978314786482
382	83	81	6.2521488617409
382	84	82	6.4410296227336
382	86	83	10.69797745906
382	87	84	12.321497352052
382	88	85	8.9841515017579
382	89	86	13.508952133237
383	80	78	1.3857092306949
383	81	79	1.4208227377851
383	82	80	2.2950703679351
383	83	81	1.4612779056421
383	84	82	1.9351166570326
383	86	83	2.1867319545243
383	87	84	1.353931713663
383	88	85	2.4848487871001
383	89	86	2.2747543780366
384	80	78	2.4956500669807
384	81	79	3.0887200175689
384	82	80	5.5542793076161
384	83	81	4.6928559245426
384	84	82	6.7438327145936
384	86	83	8.737080126593
384	87	84	6.7218126735728
384	88	85	12.384228406773
384	89	86	13.094846494173
385	81	79	1001.5438852106
385	82	80	1001.1009433738
385	83	81	1000.2926106108
385	84	82	998.98336368386
385	86	83	997.26450706013
385	87	84	995.00723440009
385	88	85	992.33807287074
385	89	86	989.11852992989
386	81	79	1730.622261498
386	82	80	1728.4436617027
386	83	81	1724.4678945803
386	84	82	1718.028392032
386	86	83	1709.5742330947
386	87	84	1699.2487580295
386	88	85	1687.1406308938
386	89	86	1672.5358065631
387	81	79	1398.7208418272
387	82	80	1396.6963659049
387	83	81	1393.4555818823
387	84	82	1387.9974704117
387	86	83	1381.136284622
387	87	84	1372.8498533749
387	88	85	1363.4863490937
387	89	86	1352.7102709965
388	81	79	1794.4544590726
388	82	80	1793.4506564279
388	83	81	1791.8437676833
388	84	82	1789.1374540791
388	86	83	1785.7354494584
388	87	84	1780.6313506392
388	88	85	1774.5413594472
388	89	86	1767.5326350716
389	81	79	1735.5864468953
389	82	80	1733.8492708616
389	83	81	1730.6038471001
389	84	82	1726.3343572088
389	86	83	1720.2799584591
389	87	84	1712.6142194259
389	88	85	1703.1551106645
389	89	86	1691.105887448
390	81	79	26.25514509289
390	82	80	27.940916439752
390	83	81	31.090305033414
390	84	82	35.233456668595
390	86	83	41.108700015798
390	87	84	48.547602558861
390	88	85	57.442542028086
390	89	86	67.027273168286
391	82	80	2.223177333409
391	83	81	4.057117497432
391	84	82	6.5712647795444
391	86	83	8.6271441699006
391	87	84	10.569488744554
391	88	85	12.398866029107
391	89	86	14.955513617117
392	82	80	2.2596782192355
392	83	81	3.6172962043434
392	84	82	6.0922313142102
392	86	83	7.6583138958085
392	87	84	9.7432674118783
392	88	85	11.169770394755
392	89	86	12.854836660204
393	82	80	2.4183074514149
393	83	81	4.5179258252494
393	84	82	5.9435192621779
393	86	83	8.4282751583494
393	87	84	10.671407770528
393	88	85	12.98020605715
393	89	86	15.381478424929
394	83	81	1.8339401640231
394	84	82	2.5141472821124
394	86	83	2.0558793903561
394	87	84	1.9423445746535
394	88	85	1.8293772845529
394	89	86	2.5566475880099
395	83	81	3.10504758538
395	84	82	5.4348027099327
395	86	83	5.8599543714028
395	87	84	6.6765804789964
395	88	85	7.3506159021506
395	89	86	11.355337588027
396	83	81	1.3576179851079
396	84	82	2.4749351098668
396	86	83	1.5660825815983
396	87	84	2.0849535160698
396	88	85	1.4265029828763
396	89	86	1.6850662654499
397	83	81	2.4723992581475
397	84	82	5.0585458781288
397	86	83	4.4113758399294
397	87	84	6.5611967765792
397	88	85	5.617591629733
397	89	86	7.1467121093913
398	83	81	2.0996183738345
398	84	82	1.4255934369285
398	86	83	2.4847558961716
398	87	84	2.243132612179
398	88	85	2.3087982866215
398	89	86	2.4012723677792
399	83	81	3.6225705064694
399	84	82	3.4581141260451
399	86	83	6.6189598435675
399	87	84	7.5059612715645
399	88	85	9.16064715812
399	89	86	11.089542403842
400	84	82	1001.5438852106
400	86	83	1001.1747981939
400	87	84	1000.441802423
400	88	85	999.27645483
400	89	86	997.79286280678
401	84	82	1730.622261498
401	86	83	1728.8069150297
401	87	84	1725.2016912654
401	88	85	1719.4699544628
401	89	86	1712.1729393486
402	84	82	1398.7208418272
402	86	83	1396.9446376751
402	87	84	1393.6424738292
402	88	85	1388.300659834
402	89	86	1380.6330535444
403	84	82	1794.4544590726
403	86	83	1793.5737578473
403	87	84	1791.9364349403
403	88	85	1789.287785501
403	89	86	1785.4859307158
404	84	82	1735.5864468953
404	86	83	1734.2529218
404	87	84	1731.5902614774
404	88	85	1727.9682325898
404	89	86	1723.1736290509
405	84	82	26.25514509289
405	86	83	27.549209915571
405	87	84	30.133079593323
405	88	85	33.647929210027
405	89	86	38.300655881838
406	86	83	1.8524912786437
406	87	84	3.6789922463475
406	88	85	5.8490170466248
406	89	86	7.446323385532
407	86	83	1.9825623961166
407	87	84	3.6858070955845
407	88	85	5.9624224736588
407	89	86	8.5584238054464
408	86	83	1.8563885363983
408	87	84	3.7066659762757
408	88	85	5.0421945031267
408	89	86	6.6745253446046
409	87	84	1.8265009677038
409	88	85	2.1700248002773
409	89	86	1.5973063389072
410	87	84	2.9115181800727
410	88	85	4.4695370668234
410	89	86	4.3738205435342
411	87	84	1.7032446994679
411	88	85	2.2766153780743
411	89	86	2.5960013317876
412	87	84	2.8053863272183
412	88	85	4.6885769226682
412	89	86	6.9352292130138
413	87	84	1.8502774398774
413	88	85	1.335528526851
413	89	86	1.632330841478
414	87	84	2.9463790347821
414	88	85	2.9879703357208
414	89	86	4.085150624461
415	88	85	1001.5438852106
415	89	86	1001.2617290862
416	88	85	1730.622261498
416	89	86	1729.2344827337
417	88	85	1398.7208418272
417	89	86	1396.5086190151
418	88	85	1794.4544590726
418	89	86	1793.3575652617
419	88	85	1735.5864468953
419	89	86	1734.0714885856
420	88	85	26.25514509289
420	89	86	27.725274349069
421	89	86	1.4161748748971
422	89	86	2.4692374207312
423	89	86	2.1089601157233

