version 2
run General-0-20230404-22:50:25-3464
attr configname General
attr datetime 20230404-22:50:25
attr experiment General
attr inifile omnetpp.ini
attr iterationvars ""
attr iterationvarsf ""
attr measurement ""
attr network highWayScenario
attr processid 3464
attr repetition 0
attr replication #0
attr resultdir results
attr runnumber 0
attr seedset 0
param *.playgroundSizeX 14935m
param *.playgroundSizeY 8039m
param *.playgroundSizeZ 50m
param *.annotations.draw true
param *.manager.updateInterval 1s
param *.manager.host "\"localhost\""
param *.manager.port 9999
param *.manager.autoShutdown false
param *.manager.launchConfig "xmldoc(\"map_nttd.launchd.xml\")"
param *.rsu[0].mobility.x 7509
param *.rsu[0].mobility.y 3830
param *.rsu[0].mobility.z 3
param *.rsu[*].applType "\"TraCIDemoRSU11p\""
param *.rsu[*].appl.headerLength "80 bit"
param *.rsu[*].appl.sendBeacons false
param *.rsu[*].appl.dataOnSch false
param *.rsu[*].appl.beaconInterval 1s
param *.rsu[*].appl.beaconUserPriority 7
param *.rsu[*].appl.dataUserPriority 5
param *.rsu[*].nic.phy80211p.antennaOffsetZ "0 m"
param *.connectionManager.sendDirect true
param *.connectionManager.maxInterfDist 2600m
param *.connectionManager.drawMaxIntfDist false
param *.**.nic.mac1609_4.useServiceChannel false
param *.**.nic.mac1609_4.txPower 20mW
param *.**.nic.mac1609_4.bitrate 6Mbps
param *.**.nic.phy80211p.minPowerLevel -110dBm
param *.**.nic.phy80211p.useNoiseFloor true
param *.**.nic.phy80211p.noiseFloor -98dBm
param *.**.nic.phy80211p.decider "xmldoc(\"config.xml\")"
param *.**.nic.phy80211p.analogueModels "xmldoc(\"config.xml\")"
param *.**.nic.phy80211p.usePropagationDelay true
param *.**.nic.phy80211p.antenna "xmldoc(\"antenna.xml\", \"/root/Antenna[@id='monopole']\")"
param *.node[*].nic.phy80211p.antennaOffsetY "0 m"
param *.node[*].nic.phy80211p.antennaOffsetZ "1.895 m"
param *.node[*].applType "\"TraCIDemo11p\""
param *.node[*].appl.headerLength "80 bit"
param *.node[*].appl.sendBeacons false
param *.node[*].appl.dataOnSch false
param *.node[*].appl.beaconInterval 1s
param *.node[*].veinsmobility.x 0
param *.node[*].veinsmobility.y 0
param *.node[*].veinsmobility.z 0
param *.node[*].veinsmobility.setHostSpeed false
param *.node[*0].veinsmobility.accidentCount 1
param *.node[*0].veinsmobility.accidentStart 73s
param *.node[*0].veinsmobility.accidentDuration 50s

scalar highWayScenario.manager roiArea 0
scalar highWayScenario.rsu[0].appl generatedWSMs 0
scalar highWayScenario.rsu[0].appl receivedWSMs 0
scalar highWayScenario.rsu[0].appl generatedBSMs 0
scalar highWayScenario.rsu[0].appl receivedBSMs 0
scalar highWayScenario.rsu[0].appl generatedWSAs 0
scalar highWayScenario.rsu[0].appl receivedWSAs 0
scalar highWayScenario.rsu[0].nic.phy80211p busyTime 0
scalar highWayScenario.rsu[0].nic.mac1609_4 ReceivedUnicastPackets 0
scalar highWayScenario.rsu[0].nic.mac1609_4 ReceivedBroadcasts 0
scalar highWayScenario.rsu[0].nic.mac1609_4 SentPackets 0
scalar highWayScenario.rsu[0].nic.mac1609_4 SentAcknowledgements 0
scalar highWayScenario.rsu[0].nic.mac1609_4 RetriesExceeded 0
scalar highWayScenario.rsu[0].nic.mac1609_4 SNIRLostPackets 0
scalar highWayScenario.rsu[0].nic.mac1609_4 RXTXLostPackets 0
scalar highWayScenario.rsu[0].nic.mac1609_4 TotalLostPackets 0
scalar highWayScenario.rsu[0].nic.mac1609_4 DroppedPacketsInMac 0
scalar highWayScenario.rsu[0].nic.mac1609_4 TooLittleTime 0
scalar highWayScenario.rsu[0].nic.mac1609_4 TimesIntoBackoff 0
scalar highWayScenario.rsu[0].nic.mac1609_4 SlotsBackoff 0
scalar highWayScenario.rsu[0].nic.mac1609_4 NumInternalContention 0
scalar highWayScenario.rsu[0].nic.mac1609_4 totalBusyTime 0
scalar highWayScenario.rsu[0].nic.mac1609_4 retriesExceeded:count 0
attr source org_car2x_veins_modules_mac_sigRetriesExceeded
scalar highWayScenario.rsu[0].nic.mac1609_4 sentAcks:count 0
attr source org_car2x_veins_modules_mac_sigSentAck
scalar highWayScenario.rsu[0].nic.mac1609_4 sentPackets:count 0
attr source org_car2x_veins_modules_mac_sigSentPacket
scalar highWayScenario.rsu[0].nic.mac1609_4 collisions:count 0
attr source org_car2x_veins_modules_mac_sigCollision
scalar highWayScenario.rsu[0].nic.mac1609_4 channelBusy:timeavg 0
attr source org_car2x_veins_modules_mac_sigChannelBusy
scalar highWayScenario.node[0].appl generatedWSMs 1
scalar highWayScenario.node[0].appl receivedWSMs 0
scalar highWayScenario.node[0].appl generatedBSMs 0
scalar highWayScenario.node[0].appl receivedBSMs 0
scalar highWayScenario.node[0].appl generatedWSAs 0
scalar highWayScenario.node[0].appl receivedWSAs 0
scalar highWayScenario.node[0].nic.phy80211p busyTime 0
scalar highWayScenario.node[0].nic.mac1609_4 ReceivedUnicastPackets 0
scalar highWayScenario.node[0].nic.mac1609_4 ReceivedBroadcasts 0
scalar highWayScenario.node[0].nic.mac1609_4 SentPackets 1
scalar highWayScenario.node[0].nic.mac1609_4 SentAcknowledgements 0
scalar highWayScenario.node[0].nic.mac1609_4 RetriesExceeded 0
scalar highWayScenario.node[0].nic.mac1609_4 SNIRLostPackets 0
scalar highWayScenario.node[0].nic.mac1609_4 RXTXLostPackets 0
scalar highWayScenario.node[0].nic.mac1609_4 TotalLostPackets 0
scalar highWayScenario.node[0].nic.mac1609_4 DroppedPacketsInMac 0
scalar highWayScenario.node[0].nic.mac1609_4 TooLittleTime 0
scalar highWayScenario.node[0].nic.mac1609_4 TimesIntoBackoff 1
scalar highWayScenario.node[0].nic.mac1609_4 SlotsBackoff 0
scalar highWayScenario.node[0].nic.mac1609_4 NumInternalContention 0
scalar highWayScenario.node[0].nic.mac1609_4 totalBusyTime 0.000233
scalar highWayScenario.node[0].nic.mac1609_4 retriesExceeded:count 0
attr source org_car2x_veins_modules_mac_sigRetriesExceeded
scalar highWayScenario.node[0].nic.mac1609_4 sentAcks:count 0
attr source org_car2x_veins_modules_mac_sigSentAck
scalar highWayScenario.node[0].nic.mac1609_4 sentPackets:count 1
attr source org_car2x_veins_modules_mac_sigSentPacket
scalar highWayScenario.node[0].nic.mac1609_4 collisions:count 0
attr source org_car2x_veins_modules_mac_sigCollision
scalar highWayScenario.node[0].nic.mac1609_4 channelBusy:timeavg 2.7411684538609e-006
attr source org_car2x_veins_modules_mac_sigChannelBusy
scalar highWayScenario.node[0].veinsmobility startTime 1
scalar highWayScenario.node[0].veinsmobility totalTime 85
scalar highWayScenario.node[0].veinsmobility stopTime 86.000248588088
scalar highWayScenario.node[0].veinsmobility minSpeed 0
scalar highWayScenario.node[0].veinsmobility maxSpeed 30.89093188521
scalar highWayScenario.node[0].veinsmobility totalDistance 1328.3611747571
scalar highWayScenario.node[0].veinsmobility totalCO2Emission 468.95508895526
scalar highWayScenario.node[1].appl generatedWSMs 0
scalar highWayScenario.node[1].appl receivedWSMs 0
scalar highWayScenario.node[1].appl generatedBSMs 0
scalar highWayScenario.node[1].appl receivedBSMs 0
scalar highWayScenario.node[1].appl generatedWSAs 0
scalar highWayScenario.node[1].appl receivedWSAs 0
scalar highWayScenario.node[1].nic.phy80211p busyTime 2.7294037823851e-006
scalar highWayScenario.node[1].nic.mac1609_4 ReceivedUnicastPackets 0
scalar highWayScenario.node[1].nic.mac1609_4 ReceivedBroadcasts 0
scalar highWayScenario.node[1].nic.mac1609_4 SentPackets 0
scalar highWayScenario.node[1].nic.mac1609_4 SentAcknowledgements 0
scalar highWayScenario.node[1].nic.mac1609_4 RetriesExceeded 0
scalar highWayScenario.node[1].nic.mac1609_4 SNIRLostPackets 0
scalar highWayScenario.node[1].nic.mac1609_4 RXTXLostPackets 0
scalar highWayScenario.node[1].nic.mac1609_4 TotalLostPackets 0
scalar highWayScenario.node[1].nic.mac1609_4 DroppedPacketsInMac 0
scalar highWayScenario.node[1].nic.mac1609_4 TooLittleTime 0
scalar highWayScenario.node[1].nic.mac1609_4 TimesIntoBackoff 0
scalar highWayScenario.node[1].nic.mac1609_4 SlotsBackoff 0
scalar highWayScenario.node[1].nic.mac1609_4 NumInternalContention 0
scalar highWayScenario.node[1].nic.mac1609_4 totalBusyTime 0
scalar highWayScenario.node[1].nic.mac1609_4 retriesExceeded:count 0
attr source org_car2x_veins_modules_mac_sigRetriesExceeded
scalar highWayScenario.node[1].nic.mac1609_4 sentAcks:count 0
attr source org_car2x_veins_modules_mac_sigSentAck
scalar highWayScenario.node[1].nic.mac1609_4 sentPackets:count 0
attr source org_car2x_veins_modules_mac_sigSentPacket
scalar highWayScenario.node[1].nic.mac1609_4 collisions:count 0
attr source org_car2x_veins_modules_mac_sigCollision
scalar highWayScenario.node[1].nic.mac1609_4 channelBusy:timeavg 2.7150872948428e-006
attr source org_car2x_veins_modules_mac_sigChannelBusy
scalar highWayScenario.node[1].veinsmobility startTime 1
scalar highWayScenario.node[1].veinsmobility totalTime 85
scalar highWayScenario.node[1].veinsmobility stopTime 86.000248588088
scalar highWayScenario.node[1].veinsmobility minSpeed 2.3097215975402
scalar highWayScenario.node[1].veinsmobility maxSpeed 29.08931304483
scalar highWayScenario.node[1].veinsmobility totalDistance 2010.078055234
scalar highWayScenario.node[1].veinsmobility totalCO2Emission 463.46291508364
scalar highWayScenario.node[2].appl generatedWSMs 0
scalar highWayScenario.node[2].appl receivedWSMs 1
scalar highWayScenario.node[2].appl generatedBSMs 0
scalar highWayScenario.node[2].appl receivedBSMs 0
scalar highWayScenario.node[2].appl generatedWSAs 0
scalar highWayScenario.node[2].appl receivedWSAs 0
scalar highWayScenario.node[2].nic.phy80211p busyTime 2.7294037823851e-006
scalar highWayScenario.node[2].nic.mac1609_4 ReceivedUnicastPackets 0
scalar highWayScenario.node[2].nic.mac1609_4 ReceivedBroadcasts 1
scalar highWayScenario.node[2].nic.mac1609_4 SentPackets 0
scalar highWayScenario.node[2].nic.mac1609_4 SentAcknowledgements 0
scalar highWayScenario.node[2].nic.mac1609_4 RetriesExceeded 0
scalar highWayScenario.node[2].nic.mac1609_4 SNIRLostPackets 0
scalar highWayScenario.node[2].nic.mac1609_4 RXTXLostPackets 0
scalar highWayScenario.node[2].nic.mac1609_4 TotalLostPackets 0
scalar highWayScenario.node[2].nic.mac1609_4 DroppedPacketsInMac 0
scalar highWayScenario.node[2].nic.mac1609_4 TooLittleTime 0
scalar highWayScenario.node[2].nic.mac1609_4 TimesIntoBackoff 0
scalar highWayScenario.node[2].nic.mac1609_4 SlotsBackoff 0
scalar highWayScenario.node[2].nic.mac1609_4 NumInternalContention 0
scalar highWayScenario.node[2].nic.mac1609_4 totalBusyTime 0.000232
scalar highWayScenario.node[2].nic.mac1609_4 retriesExceeded:count 0
attr source org_car2x_veins_modules_mac_sigRetriesExceeded
scalar highWayScenario.node[2].nic.mac1609_4 sentAcks:count 0
attr source org_car2x_veins_modules_mac_sigSentAck
scalar highWayScenario.node[2].nic.mac1609_4 sentPackets:count 0
attr source org_car2x_veins_modules_mac_sigSentPacket
scalar highWayScenario.node[2].nic.mac1609_4 collisions:count 0
attr source org_car2x_veins_modules_mac_sigCollision
scalar highWayScenario.node[2].nic.mac1609_4 channelBusy:timeavg 2.7294037823851e-006
attr source org_car2x_veins_modules_mac_sigChannelBusy
scalar highWayScenario.node[2].veinsmobility startTime 1
scalar highWayScenario.node[2].veinsmobility totalTime 85
scalar highWayScenario.node[2].veinsmobility stopTime 86.000248588088
scalar highWayScenario.node[2].veinsmobility minSpeed 2.0332066265866
scalar highWayScenario.node[2].veinsmobility maxSpeed 17.146011528477
scalar highWayScenario.node[2].veinsmobility totalDistance 1350.2364961557
scalar highWayScenario.node[2].veinsmobility totalCO2Emission 250.94723784353
scalar highWayScenario.node[3].appl generatedWSMs 0
scalar highWayScenario.node[3].appl receivedWSMs 1
scalar highWayScenario.node[3].appl generatedBSMs 0
scalar highWayScenario.node[3].appl receivedBSMs 0
scalar highWayScenario.node[3].appl generatedWSAs 0
scalar highWayScenario.node[3].appl receivedWSAs 0
scalar highWayScenario.node[3].nic.phy80211p busyTime 2.8292597156065e-006
scalar highWayScenario.node[3].nic.mac1609_4 ReceivedUnicastPackets 0
scalar highWayScenario.node[3].nic.mac1609_4 ReceivedBroadcasts 1
scalar highWayScenario.node[3].nic.mac1609_4 SentPackets 0
scalar highWayScenario.node[3].nic.mac1609_4 SentAcknowledgements 0
scalar highWayScenario.node[3].nic.mac1609_4 RetriesExceeded 0
scalar highWayScenario.node[3].nic.mac1609_4 SNIRLostPackets 0
scalar highWayScenario.node[3].nic.mac1609_4 RXTXLostPackets 0
scalar highWayScenario.node[3].nic.mac1609_4 TotalLostPackets 0
scalar highWayScenario.node[3].nic.mac1609_4 DroppedPacketsInMac 0
scalar highWayScenario.node[3].nic.mac1609_4 TooLittleTime 0
scalar highWayScenario.node[3].nic.mac1609_4 TimesIntoBackoff 0
scalar highWayScenario.node[3].nic.mac1609_4 SlotsBackoff 0
scalar highWayScenario.node[3].nic.mac1609_4 NumInternalContention 0
scalar highWayScenario.node[3].nic.mac1609_4 totalBusyTime 0.000232
scalar highWayScenario.node[3].nic.mac1609_4 retriesExceeded:count 0
attr source org_car2x_veins_modules_mac_sigRetriesExceeded
scalar highWayScenario.node[3].nic.mac1609_4 sentAcks:count 0
attr source org_car2x_veins_modules_mac_sigSentAck
scalar highWayScenario.node[3].nic.mac1609_4 sentPackets:count 0
attr source org_car2x_veins_modules_mac_sigSentPacket
scalar highWayScenario.node[3].nic.mac1609_4 collisions:count 0
attr source org_car2x_veins_modules_mac_sigCollision
scalar highWayScenario.node[3].nic.mac1609_4 channelBusy:timeavg 2.8292597156065e-006
attr source org_car2x_veins_modules_mac_sigChannelBusy
scalar highWayScenario.node[3].veinsmobility startTime 4
scalar highWayScenario.node[3].veinsmobility totalTime 82
scalar highWayScenario.node[3].veinsmobility stopTime 86.000248588088
scalar highWayScenario.node[3].veinsmobility minSpeed 2.359660308552
scalar highWayScenario.node[3].veinsmobility maxSpeed 28.177440537738
scalar highWayScenario.node[3].veinsmobility totalDistance 1398.1082503679
scalar highWayScenario.node[3].veinsmobility totalCO2Emission 421.11642401148
scalar highWayScenario.node[4].appl generatedWSMs 0
scalar highWayScenario.node[4].appl receivedWSMs 0
scalar highWayScenario.node[4].appl generatedBSMs 0
scalar highWayScenario.node[4].appl receivedBSMs 0
scalar highWayScenario.node[4].appl generatedWSAs 0
scalar highWayScenario.node[4].appl receivedWSAs 0
scalar highWayScenario.node[4].nic.phy80211p busyTime 2.8292597156065e-006
scalar highWayScenario.node[4].nic.mac1609_4 ReceivedUnicastPackets 0
scalar highWayScenario.node[4].nic.mac1609_4 ReceivedBroadcasts 0
scalar highWayScenario.node[4].nic.mac1609_4 SentPackets 0
scalar highWayScenario.node[4].nic.mac1609_4 SentAcknowledgements 0
scalar highWayScenario.node[4].nic.mac1609_4 RetriesExceeded 0
scalar highWayScenario.node[4].nic.mac1609_4 SNIRLostPackets 0
scalar highWayScenario.node[4].nic.mac1609_4 RXTXLostPackets 0
scalar highWayScenario.node[4].nic.mac1609_4 TotalLostPackets 0
scalar highWayScenario.node[4].nic.mac1609_4 DroppedPacketsInMac 0
scalar highWayScenario.node[4].nic.mac1609_4 TooLittleTime 0
scalar highWayScenario.node[4].nic.mac1609_4 TimesIntoBackoff 0
scalar highWayScenario.node[4].nic.mac1609_4 SlotsBackoff 0
scalar highWayScenario.node[4].nic.mac1609_4 NumInternalContention 0
scalar highWayScenario.node[4].nic.mac1609_4 totalBusyTime 0
scalar highWayScenario.node[4].nic.mac1609_4 retriesExceeded:count 0
attr source org_car2x_veins_modules_mac_sigRetriesExceeded
scalar highWayScenario.node[4].nic.mac1609_4 sentAcks:count 0
attr source org_car2x_veins_modules_mac_sigSentAck
scalar highWayScenario.node[4].nic.mac1609_4 sentPackets:count 0
attr source org_car2x_veins_modules_mac_sigSentPacket
scalar highWayScenario.node[4].nic.mac1609_4 collisions:count 0
attr source org_car2x_veins_modules_mac_sigCollision
scalar highWayScenario.node[4].nic.mac1609_4 channelBusy:timeavg 2.8170267526915e-006
attr source org_car2x_veins_modules_mac_sigChannelBusy
scalar highWayScenario.node[4].veinsmobility startTime 4
scalar highWayScenario.node[4].veinsmobility totalTime 82
scalar highWayScenario.node[4].veinsmobility stopTime 86.000248588088
scalar highWayScenario.node[4].veinsmobility minSpeed 1.884088109131
scalar highWayScenario.node[4].veinsmobility maxSpeed 24.505726289407
scalar highWayScenario.node[4].veinsmobility totalDistance 1828.8030617198
scalar highWayScenario.node[4].veinsmobility totalCO2Emission 362.91717934937
scalar highWayScenario.node[5].appl generatedWSMs 0
scalar highWayScenario.node[5].appl receivedWSMs 1
scalar highWayScenario.node[5].appl generatedBSMs 0
scalar highWayScenario.node[5].appl receivedBSMs 0
scalar highWayScenario.node[5].appl generatedWSAs 0
scalar highWayScenario.node[5].appl receivedWSAs 0
scalar highWayScenario.node[5].nic.phy80211p busyTime 2.8292597156065e-006
scalar highWayScenario.node[5].nic.mac1609_4 ReceivedUnicastPackets 0
scalar highWayScenario.node[5].nic.mac1609_4 ReceivedBroadcasts 1
scalar highWayScenario.node[5].nic.mac1609_4 SentPackets 0
scalar highWayScenario.node[5].nic.mac1609_4 SentAcknowledgements 0
scalar highWayScenario.node[5].nic.mac1609_4 RetriesExceeded 0
scalar highWayScenario.node[5].nic.mac1609_4 SNIRLostPackets 0
scalar highWayScenario.node[5].nic.mac1609_4 RXTXLostPackets 0
scalar highWayScenario.node[5].nic.mac1609_4 TotalLostPackets 0
scalar highWayScenario.node[5].nic.mac1609_4 DroppedPacketsInMac 0
scalar highWayScenario.node[5].nic.mac1609_4 TooLittleTime 0
scalar highWayScenario.node[5].nic.mac1609_4 TimesIntoBackoff 0
scalar highWayScenario.node[5].nic.mac1609_4 SlotsBackoff 0
scalar highWayScenario.node[5].nic.mac1609_4 NumInternalContention 0
scalar highWayScenario.node[5].nic.mac1609_4 totalBusyTime 0.000232
scalar highWayScenario.node[5].nic.mac1609_4 retriesExceeded:count 0
attr source org_car2x_veins_modules_mac_sigRetriesExceeded
scalar highWayScenario.node[5].nic.mac1609_4 sentAcks:count 0
attr source org_car2x_veins_modules_mac_sigSentAck
scalar highWayScenario.node[5].nic.mac1609_4 sentPackets:count 0
attr source org_car2x_veins_modules_mac_sigSentPacket
scalar highWayScenario.node[5].nic.mac1609_4 collisions:count 0
attr source org_car2x_veins_modules_mac_sigCollision
scalar highWayScenario.node[5].nic.mac1609_4 channelBusy:timeavg 2.8292597156065e-006
attr source org_car2x_veins_modules_mac_sigChannelBusy
scalar highWayScenario.node[5].veinsmobility startTime 4
scalar highWayScenario.node[5].veinsmobility totalTime 82
scalar highWayScenario.node[5].veinsmobility stopTime 86.000248588088
scalar highWayScenario.node[5].veinsmobility minSpeed 1.8854387812782
scalar highWayScenario.node[5].veinsmobility maxSpeed 19.266563539824
scalar highWayScenario.node[5].veinsmobility totalDistance 1447.8208813528
scalar highWayScenario.node[5].veinsmobility totalCO2Emission 272.44326020002
scalar highWayScenario.node[6].appl generatedWSMs 0
scalar highWayScenario.node[6].appl receivedWSMs 1
scalar highWayScenario.node[6].appl generatedBSMs 0
scalar highWayScenario.node[6].appl receivedBSMs 0
scalar highWayScenario.node[6].appl generatedWSAs 0
scalar highWayScenario.node[6].appl receivedWSAs 0
scalar highWayScenario.node[6].nic.phy80211p busyTime 2.9366996198919e-006
scalar highWayScenario.node[6].nic.mac1609_4 ReceivedUnicastPackets 0
scalar highWayScenario.node[6].nic.mac1609_4 ReceivedBroadcasts 1
scalar highWayScenario.node[6].nic.mac1609_4 SentPackets 0
scalar highWayScenario.node[6].nic.mac1609_4 SentAcknowledgements 0
scalar highWayScenario.node[6].nic.mac1609_4 RetriesExceeded 0
scalar highWayScenario.node[6].nic.mac1609_4 SNIRLostPackets 0
scalar highWayScenario.node[6].nic.mac1609_4 RXTXLostPackets 0
scalar highWayScenario.node[6].nic.mac1609_4 TotalLostPackets 0
scalar highWayScenario.node[6].nic.mac1609_4 DroppedPacketsInMac 0
scalar highWayScenario.node[6].nic.mac1609_4 TooLittleTime 0
scalar highWayScenario.node[6].nic.mac1609_4 TimesIntoBackoff 0
scalar highWayScenario.node[6].nic.mac1609_4 SlotsBackoff 0
scalar highWayScenario.node[6].nic.mac1609_4 NumInternalContention 0
scalar highWayScenario.node[6].nic.mac1609_4 totalBusyTime 0.000232
scalar highWayScenario.node[6].nic.mac1609_4 retriesExceeded:count 0
attr source org_car2x_veins_modules_mac_sigRetriesExceeded
scalar highWayScenario.node[6].nic.mac1609_4 sentAcks:count 0
attr source org_car2x_veins_modules_mac_sigSentAck
scalar highWayScenario.node[6].nic.mac1609_4 sentPackets:count 0
attr source org_car2x_veins_modules_mac_sigSentPacket
scalar highWayScenario.node[6].nic.mac1609_4 collisions:count 0
attr source org_car2x_veins_modules_mac_sigCollision
scalar highWayScenario.node[6].nic.mac1609_4 channelBusy:timeavg 2.9366996198919e-006
attr source org_car2x_veins_modules_mac_sigChannelBusy
scalar highWayScenario.node[6].veinsmobility startTime 7
scalar highWayScenario.node[6].veinsmobility totalTime 79
scalar highWayScenario.node[6].veinsmobility stopTime 86.000248588088
scalar highWayScenario.node[6].veinsmobility minSpeed 2.2843238931615
scalar highWayScenario.node[6].veinsmobility maxSpeed 26.0546017797
scalar highWayScenario.node[6].veinsmobility totalDistance 1287.1899509867
scalar highWayScenario.node[6].veinsmobility totalCO2Emission 375.54862542208
scalar highWayScenario.node[7].appl generatedWSMs 0
scalar highWayScenario.node[7].appl receivedWSMs 0
scalar highWayScenario.node[7].appl generatedBSMs 0
scalar highWayScenario.node[7].appl receivedBSMs 0
scalar highWayScenario.node[7].appl generatedWSAs 0
scalar highWayScenario.node[7].appl receivedWSAs 0
scalar highWayScenario.node[7].nic.phy80211p busyTime 2.9366996198919e-006
scalar highWayScenario.node[7].nic.mac1609_4 ReceivedUnicastPackets 0
scalar highWayScenario.node[7].nic.mac1609_4 ReceivedBroadcasts 0
scalar highWayScenario.node[7].nic.mac1609_4 SentPackets 0
scalar highWayScenario.node[7].nic.mac1609_4 SentAcknowledgements 0
scalar highWayScenario.node[7].nic.mac1609_4 RetriesExceeded 0
scalar highWayScenario.node[7].nic.mac1609_4 SNIRLostPackets 0
scalar highWayScenario.node[7].nic.mac1609_4 RXTXLostPackets 0
scalar highWayScenario.node[7].nic.mac1609_4 TotalLostPackets 0
scalar highWayScenario.node[7].nic.mac1609_4 DroppedPacketsInMac 0
scalar highWayScenario.node[7].nic.mac1609_4 TooLittleTime 0
scalar highWayScenario.node[7].nic.mac1609_4 TimesIntoBackoff 0
scalar highWayScenario.node[7].nic.mac1609_4 SlotsBackoff 0
scalar highWayScenario.node[7].nic.mac1609_4 NumInternalContention 0
scalar highWayScenario.node[7].nic.mac1609_4 totalBusyTime 0
scalar highWayScenario.node[7].nic.mac1609_4 retriesExceeded:count 0
attr source org_car2x_veins_modules_mac_sigRetriesExceeded
scalar highWayScenario.node[7].nic.mac1609_4 sentAcks:count 0
attr source org_car2x_veins_modules_mac_sigSentAck
scalar highWayScenario.node[7].nic.mac1609_4 sentPackets:count 0
attr source org_car2x_veins_modules_mac_sigSentPacket
scalar highWayScenario.node[7].nic.mac1609_4 collisions:count 0
attr source org_car2x_veins_modules_mac_sigCollision
scalar highWayScenario.node[7].nic.mac1609_4 channelBusy:timeavg 2.9337891606957e-006
attr source org_car2x_veins_modules_mac_sigChannelBusy
scalar highWayScenario.node[7].veinsmobility startTime 7
scalar highWayScenario.node[7].veinsmobility totalTime 79
scalar highWayScenario.node[7].veinsmobility stopTime 86.000248588088
scalar highWayScenario.node[7].veinsmobility minSpeed 2.3999231554568
scalar highWayScenario.node[7].veinsmobility maxSpeed 21.201356138292
scalar highWayScenario.node[7].veinsmobility totalDistance 1528.9967770166
scalar highWayScenario.node[7].veinsmobility totalCO2Emission 305.1566471124
scalar highWayScenario.node[8].appl generatedWSMs 0
scalar highWayScenario.node[8].appl receivedWSMs 1
scalar highWayScenario.node[8].appl generatedBSMs 0
scalar highWayScenario.node[8].appl receivedBSMs 0
scalar highWayScenario.node[8].appl generatedWSAs 0
scalar highWayScenario.node[8].appl receivedWSAs 0
scalar highWayScenario.node[8].nic.phy80211p busyTime 2.9366996198919e-006
scalar highWayScenario.node[8].nic.mac1609_4 ReceivedUnicastPackets 0
scalar highWayScenario.node[8].nic.mac1609_4 ReceivedBroadcasts 1
scalar highWayScenario.node[8].nic.mac1609_4 SentPackets 0
scalar highWayScenario.node[8].nic.mac1609_4 SentAcknowledgements 0
scalar highWayScenario.node[8].nic.mac1609_4 RetriesExceeded 0
scalar highWayScenario.node[8].nic.mac1609_4 SNIRLostPackets 0
scalar highWayScenario.node[8].nic.mac1609_4 RXTXLostPackets 0
scalar highWayScenario.node[8].nic.mac1609_4 TotalLostPackets 0
scalar highWayScenario.node[8].nic.mac1609_4 DroppedPacketsInMac 0
scalar highWayScenario.node[8].nic.mac1609_4 TooLittleTime 0
scalar highWayScenario.node[8].nic.mac1609_4 TimesIntoBackoff 0
scalar highWayScenario.node[8].nic.mac1609_4 SlotsBackoff 0
scalar highWayScenario.node[8].nic.mac1609_4 NumInternalContention 0
scalar highWayScenario.node[8].nic.mac1609_4 totalBusyTime 0.000232
scalar highWayScenario.node[8].nic.mac1609_4 retriesExceeded:count 0
attr source org_car2x_veins_modules_mac_sigRetriesExceeded
scalar highWayScenario.node[8].nic.mac1609_4 sentAcks:count 0
attr source org_car2x_veins_modules_mac_sigSentAck
scalar highWayScenario.node[8].nic.mac1609_4 sentPackets:count 0
attr source org_car2x_veins_modules_mac_sigSentPacket
scalar highWayScenario.node[8].nic.mac1609_4 collisions:count 0
attr source org_car2x_veins_modules_mac_sigCollision
scalar highWayScenario.node[8].nic.mac1609_4 channelBusy:timeavg 2.9366996198919e-006
attr source org_car2x_veins_modules_mac_sigChannelBusy
scalar highWayScenario.node[8].veinsmobility startTime 7
scalar highWayScenario.node[8].veinsmobility totalTime 79
scalar highWayScenario.node[8].veinsmobility stopTime 86.000248588088
scalar highWayScenario.node[8].veinsmobility minSpeed 2.3992453218205
scalar highWayScenario.node[8].veinsmobility maxSpeed 17.536483924001
scalar highWayScenario.node[8].veinsmobility totalDistance 1277.7734592675
scalar highWayScenario.node[8].veinsmobility totalCO2Emission 244.33906407523
scalar highWayScenario.node[9].appl generatedWSMs 0
scalar highWayScenario.node[9].appl receivedWSMs 0
scalar highWayScenario.node[9].appl generatedBSMs 0
scalar highWayScenario.node[9].appl receivedBSMs 0
scalar highWayScenario.node[9].appl generatedWSAs 0
scalar highWayScenario.node[9].appl receivedWSAs 0
scalar highWayScenario.node[9].nic.phy80211p busyTime 3.0526215941399e-006
scalar highWayScenario.node[9].nic.mac1609_4 ReceivedUnicastPackets 0
scalar highWayScenario.node[9].nic.mac1609_4 ReceivedBroadcasts 0
scalar highWayScenario.node[9].nic.mac1609_4 SentPackets 0
scalar highWayScenario.node[9].nic.mac1609_4 SentAcknowledgements 0
scalar highWayScenario.node[9].nic.mac1609_4 RetriesExceeded 0
scalar highWayScenario.node[9].nic.mac1609_4 SNIRLostPackets 0
scalar highWayScenario.node[9].nic.mac1609_4 RXTXLostPackets 0
scalar highWayScenario.node[9].nic.mac1609_4 TotalLostPackets 0
scalar highWayScenario.node[9].nic.mac1609_4 DroppedPacketsInMac 0
scalar highWayScenario.node[9].nic.mac1609_4 TooLittleTime 0
scalar highWayScenario.node[9].nic.mac1609_4 TimesIntoBackoff 0
scalar highWayScenario.node[9].nic.mac1609_4 SlotsBackoff 0
scalar highWayScenario.node[9].nic.mac1609_4 NumInternalContention 0
scalar highWayScenario.node[9].nic.mac1609_4 totalBusyTime 0
scalar highWayScenario.node[9].nic.mac1609_4 retriesExceeded:count 0
attr source org_car2x_veins_modules_mac_sigRetriesExceeded
scalar highWayScenario.node[9].nic.mac1609_4 sentAcks:count 0
attr source org_car2x_veins_modules_mac_sigSentAck
scalar highWayScenario.node[9].nic.mac1609_4 sentPackets:count 0
attr source org_car2x_veins_modules_mac_sigSentPacket
scalar highWayScenario.node[9].nic.mac1609_4 collisions:count 0
attr source org_car2x_veins_modules_mac_sigCollision
scalar highWayScenario.node[9].nic.mac1609_4 channelBusy:timeavg 3.0499878659125e-006
attr source org_car2x_veins_modules_mac_sigChannelBusy
scalar highWayScenario.node[9].veinsmobility startTime 10
scalar highWayScenario.node[9].veinsmobility totalTime 76
scalar highWayScenario.node[9].veinsmobility stopTime 86.000248588088
scalar highWayScenario.node[9].veinsmobility minSpeed 2.3776709283935
scalar highWayScenario.node[9].veinsmobility maxSpeed 24.953265620776
scalar highWayScenario.node[9].veinsmobility totalDistance 1496.4780531569
scalar highWayScenario.node[9].veinsmobility totalCO2Emission 336.14365016579
scalar highWayScenario.node[10].appl generatedWSMs 0
scalar highWayScenario.node[10].appl receivedWSMs 1
scalar highWayScenario.node[10].appl generatedBSMs 0
scalar highWayScenario.node[10].appl receivedBSMs 0
scalar highWayScenario.node[10].appl generatedWSAs 0
scalar highWayScenario.node[10].appl receivedWSAs 0
scalar highWayScenario.node[10].nic.phy80211p busyTime 3.0526215941399e-006
scalar highWayScenario.node[10].nic.mac1609_4 ReceivedUnicastPackets 0
scalar highWayScenario.node[10].nic.mac1609_4 ReceivedBroadcasts 1
scalar highWayScenario.node[10].nic.mac1609_4 SentPackets 0
scalar highWayScenario.node[10].nic.mac1609_4 SentAcknowledgements 0
scalar highWayScenario.node[10].nic.mac1609_4 RetriesExceeded 0
scalar highWayScenario.node[10].nic.mac1609_4 SNIRLostPackets 0
scalar highWayScenario.node[10].nic.mac1609_4 RXTXLostPackets 0
scalar highWayScenario.node[10].nic.mac1609_4 TotalLostPackets 0
scalar highWayScenario.node[10].nic.mac1609_4 DroppedPacketsInMac 0
scalar highWayScenario.node[10].nic.mac1609_4 TooLittleTime 0
scalar highWayScenario.node[10].nic.mac1609_4 TimesIntoBackoff 0
scalar highWayScenario.node[10].nic.mac1609_4 SlotsBackoff 0
scalar highWayScenario.node[10].nic.mac1609_4 NumInternalContention 0
scalar highWayScenario.node[10].nic.mac1609_4 totalBusyTime 0.000232
scalar highWayScenario.node[10].nic.mac1609_4 retriesExceeded:count 0
attr source org_car2x_veins_modules_mac_sigRetriesExceeded
scalar highWayScenario.node[10].nic.mac1609_4 sentAcks:count 0
attr source org_car2x_veins_modules_mac_sigSentAck
scalar highWayScenario.node[10].nic.mac1609_4 sentPackets:count 0
attr source org_car2x_veins_modules_mac_sigSentPacket
scalar highWayScenario.node[10].nic.mac1609_4 collisions:count 0
attr source org_car2x_veins_modules_mac_sigCollision
scalar highWayScenario.node[10].nic.mac1609_4 channelBusy:timeavg 3.0526215941399e-006
attr source org_car2x_veins_modules_mac_sigChannelBusy
scalar highWayScenario.node[10].veinsmobility startTime 10
scalar highWayScenario.node[10].veinsmobility totalTime 76
scalar highWayScenario.node[10].veinsmobility stopTime 86.000248588088
scalar highWayScenario.node[10].veinsmobility minSpeed 2.4547319349496
scalar highWayScenario.node[10].veinsmobility maxSpeed 30.99637940838
scalar highWayScenario.node[10].veinsmobility totalDistance 1294.4364913145
scalar highWayScenario.node[10].veinsmobility totalCO2Emission 434.74262131076
scalar highWayScenario.node[11].appl generatedWSMs 0
scalar highWayScenario.node[11].appl receivedWSMs 1
scalar highWayScenario.node[11].appl generatedBSMs 0
scalar highWayScenario.node[11].appl receivedBSMs 0
scalar highWayScenario.node[11].appl generatedWSAs 0
scalar highWayScenario.node[11].appl receivedWSAs 0
scalar highWayScenario.node[11].nic.phy80211p busyTime 3.0526215941399e-006
scalar highWayScenario.node[11].nic.mac1609_4 ReceivedUnicastPackets 0
scalar highWayScenario.node[11].nic.mac1609_4 ReceivedBroadcasts 1
scalar highWayScenario.node[11].nic.mac1609_4 SentPackets 0
scalar highWayScenario.node[11].nic.mac1609_4 SentAcknowledgements 0
scalar highWayScenario.node[11].nic.mac1609_4 RetriesExceeded 0
scalar highWayScenario.node[11].nic.mac1609_4 SNIRLostPackets 0
scalar highWayScenario.node[11].nic.mac1609_4 RXTXLostPackets 0
scalar highWayScenario.node[11].nic.mac1609_4 TotalLostPackets 0
scalar highWayScenario.node[11].nic.mac1609_4 DroppedPacketsInMac 0
scalar highWayScenario.node[11].nic.mac1609_4 TooLittleTime 0
scalar highWayScenario.node[11].nic.mac1609_4 TimesIntoBackoff 0
scalar highWayScenario.node[11].nic.mac1609_4 SlotsBackoff 0
scalar highWayScenario.node[11].nic.mac1609_4 NumInternalContention 0
scalar highWayScenario.node[11].nic.mac1609_4 totalBusyTime 0.000232
scalar highWayScenario.node[11].nic.mac1609_4 retriesExceeded:count 0
attr source org_car2x_veins_modules_mac_sigRetriesExceeded
scalar highWayScenario.node[11].nic.mac1609_4 sentAcks:count 0
attr source org_car2x_veins_modules_mac_sigSentAck
scalar highWayScenario.node[11].nic.mac1609_4 sentPackets:count 0
attr source org_car2x_veins_modules_mac_sigSentPacket
scalar highWayScenario.node[11].nic.mac1609_4 collisions:count 0
attr source org_car2x_veins_modules_mac_sigCollision
scalar highWayScenario.node[11].nic.mac1609_4 channelBusy:timeavg 3.0526215941399e-006
attr source org_car2x_veins_modules_mac_sigChannelBusy
scalar highWayScenario.node[11].veinsmobility startTime 10
scalar highWayScenario.node[11].veinsmobility totalTime 76
scalar highWayScenario.node[11].veinsmobility stopTime 86.000248588088
scalar highWayScenario.node[11].veinsmobility minSpeed 1.5363052613102
scalar highWayScenario.node[11].veinsmobility maxSpeed 15.740775800418
scalar highWayScenario.node[11].veinsmobility totalDistance 1095.8516313375
scalar highWayScenario.node[11].veinsmobility totalCO2Emission 206.9852574177
scalar highWayScenario.node[12].appl generatedWSMs 0
scalar highWayScenario.node[12].appl receivedWSMs 0
scalar highWayScenario.node[12].appl generatedBSMs 0
scalar highWayScenario.node[12].appl receivedBSMs 0
scalar highWayScenario.node[12].appl generatedWSAs 0
scalar highWayScenario.node[12].appl receivedWSAs 0
scalar highWayScenario.node[12].nic.phy80211p busyTime 3.1780713694427e-006
scalar highWayScenario.node[12].nic.mac1609_4 ReceivedUnicastPackets 0
scalar highWayScenario.node[12].nic.mac1609_4 ReceivedBroadcasts 0
scalar highWayScenario.node[12].nic.mac1609_4 SentPackets 0
scalar highWayScenario.node[12].nic.mac1609_4 SentAcknowledgements 0
scalar highWayScenario.node[12].nic.mac1609_4 RetriesExceeded 0
scalar highWayScenario.node[12].nic.mac1609_4 SNIRLostPackets 0
scalar highWayScenario.node[12].nic.mac1609_4 RXTXLostPackets 0
scalar highWayScenario.node[12].nic.mac1609_4 TotalLostPackets 0
scalar highWayScenario.node[12].nic.mac1609_4 DroppedPacketsInMac 0
scalar highWayScenario.node[12].nic.mac1609_4 TooLittleTime 0
scalar highWayScenario.node[12].nic.mac1609_4 TimesIntoBackoff 0
scalar highWayScenario.node[12].nic.mac1609_4 SlotsBackoff 0
scalar highWayScenario.node[12].nic.mac1609_4 NumInternalContention 0
scalar highWayScenario.node[12].nic.mac1609_4 totalBusyTime 0
scalar highWayScenario.node[12].nic.mac1609_4 retriesExceeded:count 0
attr source org_car2x_veins_modules_mac_sigRetriesExceeded
scalar highWayScenario.node[12].nic.mac1609_4 sentAcks:count 0
attr source org_car2x_veins_modules_mac_sigSentAck
scalar highWayScenario.node[12].nic.mac1609_4 sentPackets:count 0
attr source org_car2x_veins_modules_mac_sigSentPacket
scalar highWayScenario.node[12].nic.mac1609_4 collisions:count 0
attr source org_car2x_veins_modules_mac_sigCollision
scalar highWayScenario.node[12].nic.mac1609_4 channelBusy:timeavg 3.175795349796e-006
attr source org_car2x_veins_modules_mac_sigChannelBusy
scalar highWayScenario.node[12].veinsmobility startTime 13
scalar highWayScenario.node[12].veinsmobility totalTime 73
scalar highWayScenario.node[12].veinsmobility stopTime 86.000248588088
scalar highWayScenario.node[12].veinsmobility minSpeed 1.9964566827752
scalar highWayScenario.node[12].veinsmobility maxSpeed 27.342884475938
scalar highWayScenario.node[12].veinsmobility totalDistance 1465.9960196967
scalar highWayScenario.node[12].veinsmobility totalCO2Emission 354.26039514883
scalar highWayScenario.node[13].appl generatedWSMs 0
scalar highWayScenario.node[13].appl receivedWSMs 1
scalar highWayScenario.node[13].appl generatedBSMs 0
scalar highWayScenario.node[13].appl receivedBSMs 0
scalar highWayScenario.node[13].appl generatedWSAs 0
scalar highWayScenario.node[13].appl receivedWSAs 0
scalar highWayScenario.node[13].nic.phy80211p busyTime 3.1780713694427e-006
scalar highWayScenario.node[13].nic.mac1609_4 ReceivedUnicastPackets 0
scalar highWayScenario.node[13].nic.mac1609_4 ReceivedBroadcasts 1
scalar highWayScenario.node[13].nic.mac1609_4 SentPackets 0
scalar highWayScenario.node[13].nic.mac1609_4 SentAcknowledgements 0
scalar highWayScenario.node[13].nic.mac1609_4 RetriesExceeded 0
scalar highWayScenario.node[13].nic.mac1609_4 SNIRLostPackets 0
scalar highWayScenario.node[13].nic.mac1609_4 RXTXLostPackets 0
scalar highWayScenario.node[13].nic.mac1609_4 TotalLostPackets 0
scalar highWayScenario.node[13].nic.mac1609_4 DroppedPacketsInMac 0
scalar highWayScenario.node[13].nic.mac1609_4 TooLittleTime 0
scalar highWayScenario.node[13].nic.mac1609_4 TimesIntoBackoff 0
scalar highWayScenario.node[13].nic.mac1609_4 SlotsBackoff 0
scalar highWayScenario.node[13].nic.mac1609_4 NumInternalContention 0
scalar highWayScenario.node[13].nic.mac1609_4 totalBusyTime 0.000232
scalar highWayScenario.node[13].nic.mac1609_4 retriesExceeded:count 0
attr source org_car2x_veins_modules_mac_sigRetriesExceeded
scalar highWayScenario.node[13].nic.mac1609_4 sentAcks:count 0
attr source org_car2x_veins_modules_mac_sigSentAck
scalar highWayScenario.node[13].nic.mac1609_4 sentPackets:count 0
attr source org_car2x_veins_modules_mac_sigSentPacket
scalar highWayScenario.node[13].nic.mac1609_4 collisions:count 0
attr source org_car2x_veins_modules_mac_sigCollision
scalar highWayScenario.node[13].nic.mac1609_4 channelBusy:timeavg 3.1780713694427e-006
attr source org_car2x_veins_modules_mac_sigChannelBusy
scalar highWayScenario.node[13].veinsmobility startTime 13
scalar highWayScenario.node[13].veinsmobility totalTime 73
scalar highWayScenario.node[13].veinsmobility stopTime 86.000248588088
scalar highWayScenario.node[13].veinsmobility minSpeed 2.270899338671
scalar highWayScenario.node[13].veinsmobility maxSpeed 25.815489039872
scalar highWayScenario.node[13].veinsmobility totalDistance 1172.4524377741
scalar highWayScenario.node[13].veinsmobility totalCO2Emission 354.17629728003
scalar highWayScenario.node[14].appl generatedWSMs 0
scalar highWayScenario.node[14].appl receivedWSMs 1
scalar highWayScenario.node[14].appl generatedBSMs 0
scalar highWayScenario.node[14].appl receivedBSMs 0
scalar highWayScenario.node[14].appl generatedWSAs 0
scalar highWayScenario.node[14].appl receivedWSAs 0
scalar highWayScenario.node[14].nic.phy80211p busyTime 3.1780713694427e-006
scalar highWayScenario.node[14].nic.mac1609_4 ReceivedUnicastPackets 0
scalar highWayScenario.node[14].nic.mac1609_4 ReceivedBroadcasts 1
scalar highWayScenario.node[14].nic.mac1609_4 SentPackets 0
scalar highWayScenario.node[14].nic.mac1609_4 SentAcknowledgements 0
scalar highWayScenario.node[14].nic.mac1609_4 RetriesExceeded 0
scalar highWayScenario.node[14].nic.mac1609_4 SNIRLostPackets 0
scalar highWayScenario.node[14].nic.mac1609_4 RXTXLostPackets 0
scalar highWayScenario.node[14].nic.mac1609_4 TotalLostPackets 0
scalar highWayScenario.node[14].nic.mac1609_4 DroppedPacketsInMac 0
scalar highWayScenario.node[14].nic.mac1609_4 TooLittleTime 0
scalar highWayScenario.node[14].nic.mac1609_4 TimesIntoBackoff 0
scalar highWayScenario.node[14].nic.mac1609_4 SlotsBackoff 0
scalar highWayScenario.node[14].nic.mac1609_4 NumInternalContention 0
scalar highWayScenario.node[14].nic.mac1609_4 totalBusyTime 0.000232
scalar highWayScenario.node[14].nic.mac1609_4 retriesExceeded:count 0
attr source org_car2x_veins_modules_mac_sigRetriesExceeded
scalar highWayScenario.node[14].nic.mac1609_4 sentAcks:count 0
attr source org_car2x_veins_modules_mac_sigSentAck
scalar highWayScenario.node[14].nic.mac1609_4 sentPackets:count 0
attr source org_car2x_veins_modules_mac_sigSentPacket
scalar highWayScenario.node[14].nic.mac1609_4 collisions:count 0
attr source org_car2x_veins_modules_mac_sigCollision
scalar highWayScenario.node[14].nic.mac1609_4 channelBusy:timeavg 3.1780713694427e-006
attr source org_car2x_veins_modules_mac_sigChannelBusy
scalar highWayScenario.node[14].veinsmobility startTime 13
scalar highWayScenario.node[14].veinsmobility totalTime 73
scalar highWayScenario.node[14].veinsmobility stopTime 86.000248588088
scalar highWayScenario.node[14].veinsmobility minSpeed 1.9574921074789
scalar highWayScenario.node[14].veinsmobility maxSpeed 17.271660147374
scalar highWayScenario.node[14].veinsmobility totalDistance 1145.7125709936
scalar highWayScenario.node[14].veinsmobility totalCO2Emission 213.80105386174
scalar highWayScenario.node[15].appl generatedWSMs 0
scalar highWayScenario.node[15].appl receivedWSMs 0
scalar highWayScenario.node[15].appl generatedBSMs 0
scalar highWayScenario.node[15].appl receivedBSMs 0
scalar highWayScenario.node[15].appl generatedWSAs 0
scalar highWayScenario.node[15].appl receivedWSAs 0
scalar highWayScenario.node[15].nic.phy80211p busyTime 3.3142739444425e-006
scalar highWayScenario.node[15].nic.mac1609_4 ReceivedUnicastPackets 0
scalar highWayScenario.node[15].nic.mac1609_4 ReceivedBroadcasts 0
scalar highWayScenario.node[15].nic.mac1609_4 SentPackets 0
scalar highWayScenario.node[15].nic.mac1609_4 SentAcknowledgements 0
scalar highWayScenario.node[15].nic.mac1609_4 RetriesExceeded 0
scalar highWayScenario.node[15].nic.mac1609_4 SNIRLostPackets 0
scalar highWayScenario.node[15].nic.mac1609_4 RXTXLostPackets 0
scalar highWayScenario.node[15].nic.mac1609_4 TotalLostPackets 0
scalar highWayScenario.node[15].nic.mac1609_4 DroppedPacketsInMac 0
scalar highWayScenario.node[15].nic.mac1609_4 TooLittleTime 0
scalar highWayScenario.node[15].nic.mac1609_4 TimesIntoBackoff 0
scalar highWayScenario.node[15].nic.mac1609_4 SlotsBackoff 0
scalar highWayScenario.node[15].nic.mac1609_4 NumInternalContention 0
scalar highWayScenario.node[15].nic.mac1609_4 totalBusyTime 0
scalar highWayScenario.node[15].nic.mac1609_4 retriesExceeded:count 0
attr source org_car2x_veins_modules_mac_sigRetriesExceeded
scalar highWayScenario.node[15].nic.mac1609_4 sentAcks:count 0
attr source org_car2x_veins_modules_mac_sigSentAck
scalar highWayScenario.node[15].nic.mac1609_4 sentPackets:count 0
attr source org_car2x_veins_modules_mac_sigSentPacket
scalar highWayScenario.node[15].nic.mac1609_4 collisions:count 0
attr source org_car2x_veins_modules_mac_sigCollision
scalar highWayScenario.node[15].nic.mac1609_4 channelBusy:timeavg 3.3125778504658e-006
attr source org_car2x_veins_modules_mac_sigChannelBusy
scalar highWayScenario.node[15].veinsmobility startTime 16
scalar highWayScenario.node[15].veinsmobility totalTime 70
scalar highWayScenario.node[15].veinsmobility stopTime 86.000248588088
scalar highWayScenario.node[15].veinsmobility minSpeed 2.5438195437426
scalar highWayScenario.node[15].veinsmobility maxSpeed 29.233452548727
scalar highWayScenario.node[15].veinsmobility totalDistance 1436.0075296879
scalar highWayScenario.node[15].veinsmobility totalCO2Emission 353.05637679698
scalar highWayScenario.node[16].appl generatedWSMs 0
scalar highWayScenario.node[16].appl receivedWSMs 1
scalar highWayScenario.node[16].appl generatedBSMs 0
scalar highWayScenario.node[16].appl receivedBSMs 0
scalar highWayScenario.node[16].appl generatedWSAs 0
scalar highWayScenario.node[16].appl receivedWSAs 0
scalar highWayScenario.node[16].nic.phy80211p busyTime 3.3142739444425e-006
scalar highWayScenario.node[16].nic.mac1609_4 ReceivedUnicastPackets 0
scalar highWayScenario.node[16].nic.mac1609_4 ReceivedBroadcasts 1
scalar highWayScenario.node[16].nic.mac1609_4 SentPackets 0
scalar highWayScenario.node[16].nic.mac1609_4 SentAcknowledgements 0
scalar highWayScenario.node[16].nic.mac1609_4 RetriesExceeded 0
scalar highWayScenario.node[16].nic.mac1609_4 SNIRLostPackets 0
scalar highWayScenario.node[16].nic.mac1609_4 RXTXLostPackets 0
scalar highWayScenario.node[16].nic.mac1609_4 TotalLostPackets 0
scalar highWayScenario.node[16].nic.mac1609_4 DroppedPacketsInMac 0
scalar highWayScenario.node[16].nic.mac1609_4 TooLittleTime 0
scalar highWayScenario.node[16].nic.mac1609_4 TimesIntoBackoff 0
scalar highWayScenario.node[16].nic.mac1609_4 SlotsBackoff 0
scalar highWayScenario.node[16].nic.mac1609_4 NumInternalContention 0
scalar highWayScenario.node[16].nic.mac1609_4 totalBusyTime 0.000232
scalar highWayScenario.node[16].nic.mac1609_4 retriesExceeded:count 0
attr source org_car2x_veins_modules_mac_sigRetriesExceeded
scalar highWayScenario.node[16].nic.mac1609_4 sentAcks:count 0
attr source org_car2x_veins_modules_mac_sigSentAck
scalar highWayScenario.node[16].nic.mac1609_4 sentPackets:count 0
attr source org_car2x_veins_modules_mac_sigSentPacket
scalar highWayScenario.node[16].nic.mac1609_4 collisions:count 0
attr source org_car2x_veins_modules_mac_sigCollision
scalar highWayScenario.node[16].nic.mac1609_4 channelBusy:timeavg 3.3142739444425e-006
attr source org_car2x_veins_modules_mac_sigChannelBusy
scalar highWayScenario.node[16].veinsmobility startTime 16
scalar highWayScenario.node[16].veinsmobility totalTime 70
scalar highWayScenario.node[16].veinsmobility stopTime 86.000248588088
scalar highWayScenario.node[16].veinsmobility minSpeed 1.9844037791714
scalar highWayScenario.node[16].veinsmobility maxSpeed 27.889561592596
scalar highWayScenario.node[16].veinsmobility totalDistance 1173.3296785825
scalar highWayScenario.node[16].veinsmobility totalCO2Emission 387.20777182887
scalar highWayScenario.node[17].appl generatedWSMs 0
scalar highWayScenario.node[17].appl receivedWSMs 0
scalar highWayScenario.node[17].appl generatedBSMs 0
scalar highWayScenario.node[17].appl receivedBSMs 0
scalar highWayScenario.node[17].appl generatedWSAs 0
scalar highWayScenario.node[17].appl receivedWSAs 0
scalar highWayScenario.node[17].nic.phy80211p busyTime 3.3142739444425e-006
scalar highWayScenario.node[17].nic.mac1609_4 ReceivedUnicastPackets 0
scalar highWayScenario.node[17].nic.mac1609_4 ReceivedBroadcasts 0
scalar highWayScenario.node[17].nic.mac1609_4 SentPackets 0
scalar highWayScenario.node[17].nic.mac1609_4 SentAcknowledgements 0
scalar highWayScenario.node[17].nic.mac1609_4 RetriesExceeded 0
scalar highWayScenario.node[17].nic.mac1609_4 SNIRLostPackets 1
scalar highWayScenario.node[17].nic.mac1609_4 RXTXLostPackets 0
scalar highWayScenario.node[17].nic.mac1609_4 TotalLostPackets 1
scalar highWayScenario.node[17].nic.mac1609_4 DroppedPacketsInMac 0
scalar highWayScenario.node[17].nic.mac1609_4 TooLittleTime 0
scalar highWayScenario.node[17].nic.mac1609_4 TimesIntoBackoff 0
scalar highWayScenario.node[17].nic.mac1609_4 SlotsBackoff 0
scalar highWayScenario.node[17].nic.mac1609_4 NumInternalContention 0
scalar highWayScenario.node[17].nic.mac1609_4 totalBusyTime 0.000232
scalar highWayScenario.node[17].nic.mac1609_4 retriesExceeded:count 0
attr source org_car2x_veins_modules_mac_sigRetriesExceeded
scalar highWayScenario.node[17].nic.mac1609_4 sentAcks:count 0
attr source org_car2x_veins_modules_mac_sigSentAck
scalar highWayScenario.node[17].nic.mac1609_4 sentPackets:count 0
attr source org_car2x_veins_modules_mac_sigSentPacket
scalar highWayScenario.node[17].nic.mac1609_4 collisions:count 0
attr source org_car2x_veins_modules_mac_sigCollision
scalar highWayScenario.node[17].nic.mac1609_4 channelBusy:timeavg 3.3142739444425e-006
attr source org_car2x_veins_modules_mac_sigChannelBusy
scalar highWayScenario.node[17].veinsmobility startTime 16
scalar highWayScenario.node[17].veinsmobility totalTime 70
scalar highWayScenario.node[17].veinsmobility stopTime 86.000248588088
scalar highWayScenario.node[17].veinsmobility minSpeed 1.8242310995702
scalar highWayScenario.node[17].veinsmobility maxSpeed 12.05908894636
scalar highWayScenario.node[17].veinsmobility totalDistance 771.76438341907
scalar highWayScenario.node[17].veinsmobility totalCO2Emission 159.64295170872
scalar highWayScenario.node[18].appl generatedWSMs 0
scalar highWayScenario.node[18].appl receivedWSMs 1
scalar highWayScenario.node[18].appl generatedBSMs 0
scalar highWayScenario.node[18].appl receivedBSMs 0
scalar highWayScenario.node[18].appl generatedWSAs 0
scalar highWayScenario.node[18].appl receivedWSAs 0
scalar highWayScenario.node[18].nic.phy80211p busyTime 3.4626737197099e-006
scalar highWayScenario.node[18].nic.mac1609_4 ReceivedUnicastPackets 0
scalar highWayScenario.node[18].nic.mac1609_4 ReceivedBroadcasts 1
scalar highWayScenario.node[18].nic.mac1609_4 SentPackets 0
scalar highWayScenario.node[18].nic.mac1609_4 SentAcknowledgements 0
scalar highWayScenario.node[18].nic.mac1609_4 RetriesExceeded 0
scalar highWayScenario.node[18].nic.mac1609_4 SNIRLostPackets 0
scalar highWayScenario.node[18].nic.mac1609_4 RXTXLostPackets 0
scalar highWayScenario.node[18].nic.mac1609_4 TotalLostPackets 0
scalar highWayScenario.node[18].nic.mac1609_4 DroppedPacketsInMac 0
scalar highWayScenario.node[18].nic.mac1609_4 TooLittleTime 0
scalar highWayScenario.node[18].nic.mac1609_4 TimesIntoBackoff 0
scalar highWayScenario.node[18].nic.mac1609_4 SlotsBackoff 0
scalar highWayScenario.node[18].nic.mac1609_4 NumInternalContention 0
scalar highWayScenario.node[18].nic.mac1609_4 totalBusyTime 0.000232
scalar highWayScenario.node[18].nic.mac1609_4 retriesExceeded:count 0
attr source org_car2x_veins_modules_mac_sigRetriesExceeded
scalar highWayScenario.node[18].nic.mac1609_4 sentAcks:count 0
attr source org_car2x_veins_modules_mac_sigSentAck
scalar highWayScenario.node[18].nic.mac1609_4 sentPackets:count 0
attr source org_car2x_veins_modules_mac_sigSentPacket
scalar highWayScenario.node[18].nic.mac1609_4 collisions:count 0
attr source org_car2x_veins_modules_mac_sigCollision
scalar highWayScenario.node[18].nic.mac1609_4 channelBusy:timeavg 3.4626737197099e-006
attr source org_car2x_veins_modules_mac_sigChannelBusy
scalar highWayScenario.node[18].veinsmobility startTime 19
scalar highWayScenario.node[18].veinsmobility totalTime 67
scalar highWayScenario.node[18].veinsmobility stopTime 86.000248588088
scalar highWayScenario.node[18].veinsmobility minSpeed 1.7380196658196
scalar highWayScenario.node[18].veinsmobility maxSpeed 19.721307823703
scalar highWayScenario.node[18].veinsmobility totalDistance 1197.796999267
scalar highWayScenario.node[18].veinsmobility totalCO2Emission 243.17566072521
scalar highWayScenario.node[19].appl generatedWSMs 0
scalar highWayScenario.node[19].appl receivedWSMs 1
scalar highWayScenario.node[19].appl generatedBSMs 0
scalar highWayScenario.node[19].appl receivedBSMs 0
scalar highWayScenario.node[19].appl generatedWSAs 0
scalar highWayScenario.node[19].appl receivedWSAs 0
scalar highWayScenario.node[19].nic.phy80211p busyTime 3.4626737197099e-006
scalar highWayScenario.node[19].nic.mac1609_4 ReceivedUnicastPackets 0
scalar highWayScenario.node[19].nic.mac1609_4 ReceivedBroadcasts 1
scalar highWayScenario.node[19].nic.mac1609_4 SentPackets 0
scalar highWayScenario.node[19].nic.mac1609_4 SentAcknowledgements 0
scalar highWayScenario.node[19].nic.mac1609_4 RetriesExceeded 0
scalar highWayScenario.node[19].nic.mac1609_4 SNIRLostPackets 0
scalar highWayScenario.node[19].nic.mac1609_4 RXTXLostPackets 0
scalar highWayScenario.node[19].nic.mac1609_4 TotalLostPackets 0
scalar highWayScenario.node[19].nic.mac1609_4 DroppedPacketsInMac 0
scalar highWayScenario.node[19].nic.mac1609_4 TooLittleTime 0
scalar highWayScenario.node[19].nic.mac1609_4 TimesIntoBackoff 0
scalar highWayScenario.node[19].nic.mac1609_4 SlotsBackoff 0
scalar highWayScenario.node[19].nic.mac1609_4 NumInternalContention 0
scalar highWayScenario.node[19].nic.mac1609_4 totalBusyTime 0.000232
scalar highWayScenario.node[19].nic.mac1609_4 retriesExceeded:count 0
attr source org_car2x_veins_modules_mac_sigRetriesExceeded
scalar highWayScenario.node[19].nic.mac1609_4 sentAcks:count 0
attr source org_car2x_veins_modules_mac_sigSentAck
scalar highWayScenario.node[19].nic.mac1609_4 sentPackets:count 0
attr source org_car2x_veins_modules_mac_sigSentPacket
scalar highWayScenario.node[19].nic.mac1609_4 collisions:count 0
attr source org_car2x_veins_modules_mac_sigCollision
scalar highWayScenario.node[19].nic.mac1609_4 channelBusy:timeavg 3.4626737197099e-006
attr source org_car2x_veins_modules_mac_sigChannelBusy
scalar highWayScenario.node[19].veinsmobility startTime 19
scalar highWayScenario.node[19].veinsmobility totalTime 67
scalar highWayScenario.node[19].veinsmobility stopTime 86.000248588088
scalar highWayScenario.node[19].veinsmobility minSpeed 1.3181634898065
scalar highWayScenario.node[19].veinsmobility maxSpeed 29.825524299219
scalar highWayScenario.node[19].veinsmobility totalDistance 1136.1132754723
scalar highWayScenario.node[19].veinsmobility totalCO2Emission 413.15699191978
scalar highWayScenario.node[20].appl generatedWSMs 0
scalar highWayScenario.node[20].appl receivedWSMs 0
scalar highWayScenario.node[20].appl generatedBSMs 0
scalar highWayScenario.node[20].appl receivedBSMs 0
scalar highWayScenario.node[20].appl generatedWSAs 0
scalar highWayScenario.node[20].appl receivedWSAs 0
scalar highWayScenario.node[20].nic.phy80211p busyTime 3.5692171190022e-006
scalar highWayScenario.node[20].nic.mac1609_4 ReceivedUnicastPackets 0
scalar highWayScenario.node[20].nic.mac1609_4 ReceivedBroadcasts 0
scalar highWayScenario.node[20].nic.mac1609_4 SentPackets 0
scalar highWayScenario.node[20].nic.mac1609_4 SentAcknowledgements 0
scalar highWayScenario.node[20].nic.mac1609_4 RetriesExceeded 0
scalar highWayScenario.node[20].nic.mac1609_4 SNIRLostPackets 0
scalar highWayScenario.node[20].nic.mac1609_4 RXTXLostPackets 0
scalar highWayScenario.node[20].nic.mac1609_4 TotalLostPackets 0
scalar highWayScenario.node[20].nic.mac1609_4 DroppedPacketsInMac 0
scalar highWayScenario.node[20].nic.mac1609_4 TooLittleTime 0
scalar highWayScenario.node[20].nic.mac1609_4 TimesIntoBackoff 0
scalar highWayScenario.node[20].nic.mac1609_4 SlotsBackoff 0
scalar highWayScenario.node[20].nic.mac1609_4 NumInternalContention 0
scalar highWayScenario.node[20].nic.mac1609_4 totalBusyTime 0
scalar highWayScenario.node[20].nic.mac1609_4 retriesExceeded:count 0
attr source org_car2x_veins_modules_mac_sigRetriesExceeded
scalar highWayScenario.node[20].nic.mac1609_4 sentAcks:count 0
attr source org_car2x_veins_modules_mac_sigSentAck
scalar highWayScenario.node[20].nic.mac1609_4 sentPackets:count 0
attr source org_car2x_veins_modules_mac_sigSentPacket
scalar highWayScenario.node[20].nic.mac1609_4 collisions:count 0
attr source org_car2x_veins_modules_mac_sigCollision
scalar highWayScenario.node[20].nic.mac1609_4 channelBusy:timeavg 3.5682517380788e-006
attr source org_car2x_veins_modules_mac_sigChannelBusy
scalar highWayScenario.node[20].veinsmobility startTime 21
scalar highWayScenario.node[20].veinsmobility totalTime 65
scalar highWayScenario.node[20].veinsmobility stopTime 86.000248588088
scalar highWayScenario.node[20].veinsmobility minSpeed 2.2815087681869
scalar highWayScenario.node[20].veinsmobility maxSpeed 26.071728277912
scalar highWayScenario.node[20].veinsmobility totalDistance 1406.7108477845
scalar highWayScenario.node[20].veinsmobility totalCO2Emission 317.95461167348
scalar highWayScenario.node[21].appl generatedWSMs 0
scalar highWayScenario.node[21].appl receivedWSMs 0
scalar highWayScenario.node[21].appl generatedBSMs 0
scalar highWayScenario.node[21].appl receivedBSMs 0
scalar highWayScenario.node[21].appl generatedWSAs 0
scalar highWayScenario.node[21].appl receivedWSAs 0
scalar highWayScenario.node[21].nic.phy80211p busyTime 3.62498591987e-006
scalar highWayScenario.node[21].nic.mac1609_4 ReceivedUnicastPackets 0
scalar highWayScenario.node[21].nic.mac1609_4 ReceivedBroadcasts 0
scalar highWayScenario.node[21].nic.mac1609_4 SentPackets 0
scalar highWayScenario.node[21].nic.mac1609_4 SentAcknowledgements 0
scalar highWayScenario.node[21].nic.mac1609_4 RetriesExceeded 0
scalar highWayScenario.node[21].nic.mac1609_4 SNIRLostPackets 1
scalar highWayScenario.node[21].nic.mac1609_4 RXTXLostPackets 0
scalar highWayScenario.node[21].nic.mac1609_4 TotalLostPackets 1
scalar highWayScenario.node[21].nic.mac1609_4 DroppedPacketsInMac 0
scalar highWayScenario.node[21].nic.mac1609_4 TooLittleTime 0
scalar highWayScenario.node[21].nic.mac1609_4 TimesIntoBackoff 0
scalar highWayScenario.node[21].nic.mac1609_4 SlotsBackoff 0
scalar highWayScenario.node[21].nic.mac1609_4 NumInternalContention 0
scalar highWayScenario.node[21].nic.mac1609_4 totalBusyTime 0.000232
scalar highWayScenario.node[21].nic.mac1609_4 retriesExceeded:count 0
attr source org_car2x_veins_modules_mac_sigRetriesExceeded
scalar highWayScenario.node[21].nic.mac1609_4 sentAcks:count 0
attr source org_car2x_veins_modules_mac_sigSentAck
scalar highWayScenario.node[21].nic.mac1609_4 sentPackets:count 0
attr source org_car2x_veins_modules_mac_sigSentPacket
scalar highWayScenario.node[21].nic.mac1609_4 collisions:count 0
attr source org_car2x_veins_modules_mac_sigCollision
scalar highWayScenario.node[21].nic.mac1609_4 channelBusy:timeavg 3.62498591987e-006
attr source org_car2x_veins_modules_mac_sigChannelBusy
scalar highWayScenario.node[21].veinsmobility startTime 22
scalar highWayScenario.node[21].veinsmobility totalTime 64
scalar highWayScenario.node[21].veinsmobility stopTime 86.000248588088
scalar highWayScenario.node[21].veinsmobility minSpeed 1.8627126341686
scalar highWayScenario.node[21].veinsmobility maxSpeed 12.490670340569
scalar highWayScenario.node[21].veinsmobility totalDistance 728.93038712209
scalar highWayScenario.node[21].veinsmobility totalCO2Emission 154.42328056321
scalar highWayScenario.node[22].appl generatedWSMs 0
scalar highWayScenario.node[22].appl receivedWSMs 1
scalar highWayScenario.node[22].appl generatedBSMs 0
scalar highWayScenario.node[22].appl receivedBSMs 0
scalar highWayScenario.node[22].appl generatedWSAs 0
scalar highWayScenario.node[22].appl receivedWSAs 0
scalar highWayScenario.node[22].nic.phy80211p busyTime 3.62498591987e-006
scalar highWayScenario.node[22].nic.mac1609_4 ReceivedUnicastPackets 0
scalar highWayScenario.node[22].nic.mac1609_4 ReceivedBroadcasts 1
scalar highWayScenario.node[22].nic.mac1609_4 SentPackets 0
scalar highWayScenario.node[22].nic.mac1609_4 SentAcknowledgements 0
scalar highWayScenario.node[22].nic.mac1609_4 RetriesExceeded 0
scalar highWayScenario.node[22].nic.mac1609_4 SNIRLostPackets 0
scalar highWayScenario.node[22].nic.mac1609_4 RXTXLostPackets 0
scalar highWayScenario.node[22].nic.mac1609_4 TotalLostPackets 0
scalar highWayScenario.node[22].nic.mac1609_4 DroppedPacketsInMac 0
scalar highWayScenario.node[22].nic.mac1609_4 TooLittleTime 0
scalar highWayScenario.node[22].nic.mac1609_4 TimesIntoBackoff 0
scalar highWayScenario.node[22].nic.mac1609_4 SlotsBackoff 0
scalar highWayScenario.node[22].nic.mac1609_4 NumInternalContention 0
scalar highWayScenario.node[22].nic.mac1609_4 totalBusyTime 0.000232
scalar highWayScenario.node[22].nic.mac1609_4 retriesExceeded:count 0
attr source org_car2x_veins_modules_mac_sigRetriesExceeded
scalar highWayScenario.node[22].nic.mac1609_4 sentAcks:count 0
attr source org_car2x_veins_modules_mac_sigSentAck
scalar highWayScenario.node[22].nic.mac1609_4 sentPackets:count 0
attr source org_car2x_veins_modules_mac_sigSentPacket
scalar highWayScenario.node[22].nic.mac1609_4 collisions:count 0
attr source org_car2x_veins_modules_mac_sigCollision
scalar highWayScenario.node[22].nic.mac1609_4 channelBusy:timeavg 3.62498591987e-006
attr source org_car2x_veins_modules_mac_sigChannelBusy
scalar highWayScenario.node[22].veinsmobility startTime 22
scalar highWayScenario.node[22].veinsmobility totalTime 64
scalar highWayScenario.node[22].veinsmobility stopTime 86.000248588088
scalar highWayScenario.node[22].veinsmobility minSpeed 2.5550521765137
scalar highWayScenario.node[22].veinsmobility maxSpeed 24.504734609787
scalar highWayScenario.node[22].veinsmobility totalDistance 1037.0199383691
scalar highWayScenario.node[22].veinsmobility totalCO2Emission 313.61359683239
scalar highWayScenario.node[23].appl generatedWSMs 0
scalar highWayScenario.node[23].appl receivedWSMs 0
scalar highWayScenario.node[23].appl generatedBSMs 0
scalar highWayScenario.node[23].appl receivedBSMs 0
scalar highWayScenario.node[23].appl generatedWSAs 0
scalar highWayScenario.node[23].appl receivedWSAs 0
scalar highWayScenario.node[23].nic.phy80211p busyTime 3.7419204806958e-006
scalar highWayScenario.node[23].nic.mac1609_4 ReceivedUnicastPackets 0
scalar highWayScenario.node[23].nic.mac1609_4 ReceivedBroadcasts 0
scalar highWayScenario.node[23].nic.mac1609_4 SentPackets 0
scalar highWayScenario.node[23].nic.mac1609_4 SentAcknowledgements 0
scalar highWayScenario.node[23].nic.mac1609_4 RetriesExceeded 0
scalar highWayScenario.node[23].nic.mac1609_4 SNIRLostPackets 1
scalar highWayScenario.node[23].nic.mac1609_4 RXTXLostPackets 0
scalar highWayScenario.node[23].nic.mac1609_4 TotalLostPackets 1
scalar highWayScenario.node[23].nic.mac1609_4 DroppedPacketsInMac 0
scalar highWayScenario.node[23].nic.mac1609_4 TooLittleTime 0
scalar highWayScenario.node[23].nic.mac1609_4 TimesIntoBackoff 0
scalar highWayScenario.node[23].nic.mac1609_4 SlotsBackoff 0
scalar highWayScenario.node[23].nic.mac1609_4 NumInternalContention 0
scalar highWayScenario.node[23].nic.mac1609_4 totalBusyTime 0.000232
scalar highWayScenario.node[23].nic.mac1609_4 retriesExceeded:count 0
attr source org_car2x_veins_modules_mac_sigRetriesExceeded
scalar highWayScenario.node[23].nic.mac1609_4 sentAcks:count 0
attr source org_car2x_veins_modules_mac_sigSentAck
scalar highWayScenario.node[23].nic.mac1609_4 sentPackets:count 0
attr source org_car2x_veins_modules_mac_sigSentPacket
scalar highWayScenario.node[23].nic.mac1609_4 collisions:count 0
attr source org_car2x_veins_modules_mac_sigCollision
scalar highWayScenario.node[23].nic.mac1609_4 channelBusy:timeavg 3.7419204806958e-006
attr source org_car2x_veins_modules_mac_sigChannelBusy
scalar highWayScenario.node[23].veinsmobility startTime 24
scalar highWayScenario.node[23].veinsmobility totalTime 62
scalar highWayScenario.node[23].veinsmobility stopTime 86.000248588088
scalar highWayScenario.node[23].veinsmobility minSpeed 2.5582926474744
scalar highWayScenario.node[23].veinsmobility maxSpeed 27.904308183698
scalar highWayScenario.node[23].veinsmobility totalDistance 1373.958569181
scalar highWayScenario.node[23].veinsmobility totalCO2Emission 321.81481065542
scalar highWayScenario.node[24].appl generatedWSMs 0
scalar highWayScenario.node[24].appl receivedWSMs 0
scalar highWayScenario.node[24].appl generatedBSMs 0
scalar highWayScenario.node[24].appl receivedBSMs 0
scalar highWayScenario.node[24].appl generatedWSAs 0
scalar highWayScenario.node[24].appl receivedWSAs 0
scalar highWayScenario.node[24].nic.phy80211p busyTime 3.8032631894111e-006
scalar highWayScenario.node[24].nic.mac1609_4 ReceivedUnicastPackets 0
scalar highWayScenario.node[24].nic.mac1609_4 ReceivedBroadcasts 0
scalar highWayScenario.node[24].nic.mac1609_4 SentPackets 0
scalar highWayScenario.node[24].nic.mac1609_4 SentAcknowledgements 0
scalar highWayScenario.node[24].nic.mac1609_4 RetriesExceeded 0
scalar highWayScenario.node[24].nic.mac1609_4 SNIRLostPackets 1
scalar highWayScenario.node[24].nic.mac1609_4 RXTXLostPackets 0
scalar highWayScenario.node[24].nic.mac1609_4 TotalLostPackets 1
scalar highWayScenario.node[24].nic.mac1609_4 DroppedPacketsInMac 0
scalar highWayScenario.node[24].nic.mac1609_4 TooLittleTime 0
scalar highWayScenario.node[24].nic.mac1609_4 TimesIntoBackoff 0
scalar highWayScenario.node[24].nic.mac1609_4 SlotsBackoff 0
scalar highWayScenario.node[24].nic.mac1609_4 NumInternalContention 0
scalar highWayScenario.node[24].nic.mac1609_4 totalBusyTime 0.000232
scalar highWayScenario.node[24].nic.mac1609_4 retriesExceeded:count 0
attr source org_car2x_veins_modules_mac_sigRetriesExceeded
scalar highWayScenario.node[24].nic.mac1609_4 sentAcks:count 0
attr source org_car2x_veins_modules_mac_sigSentAck
scalar highWayScenario.node[24].nic.mac1609_4 sentPackets:count 0
attr source org_car2x_veins_modules_mac_sigSentPacket
scalar highWayScenario.node[24].nic.mac1609_4 collisions:count 0
attr source org_car2x_veins_modules_mac_sigCollision
scalar highWayScenario.node[24].nic.mac1609_4 channelBusy:timeavg 3.8032631894111e-006
attr source org_car2x_veins_modules_mac_sigChannelBusy
scalar highWayScenario.node[24].veinsmobility startTime 25
scalar highWayScenario.node[24].veinsmobility totalTime 61
scalar highWayScenario.node[24].veinsmobility stopTime 86.000248588088
scalar highWayScenario.node[24].veinsmobility minSpeed 2.0718424374005
scalar highWayScenario.node[24].veinsmobility maxSpeed 16.287476545066
scalar highWayScenario.node[24].veinsmobility totalDistance 894.29048628096
scalar highWayScenario.node[24].veinsmobility totalCO2Emission 184.32953226354
scalar highWayScenario.node[25].appl generatedWSMs 0
scalar highWayScenario.node[25].appl receivedWSMs 1
scalar highWayScenario.node[25].appl generatedBSMs 0
scalar highWayScenario.node[25].appl receivedBSMs 0
scalar highWayScenario.node[25].appl generatedWSAs 0
scalar highWayScenario.node[25].appl receivedWSAs 0
scalar highWayScenario.node[25].nic.phy80211p busyTime 3.8032631894111e-006
scalar highWayScenario.node[25].nic.mac1609_4 ReceivedUnicastPackets 0
scalar highWayScenario.node[25].nic.mac1609_4 ReceivedBroadcasts 1
scalar highWayScenario.node[25].nic.mac1609_4 SentPackets 0
scalar highWayScenario.node[25].nic.mac1609_4 SentAcknowledgements 0
scalar highWayScenario.node[25].nic.mac1609_4 RetriesExceeded 0
scalar highWayScenario.node[25].nic.mac1609_4 SNIRLostPackets 0
scalar highWayScenario.node[25].nic.mac1609_4 RXTXLostPackets 0
scalar highWayScenario.node[25].nic.mac1609_4 TotalLostPackets 0
scalar highWayScenario.node[25].nic.mac1609_4 DroppedPacketsInMac 0
scalar highWayScenario.node[25].nic.mac1609_4 TooLittleTime 0
scalar highWayScenario.node[25].nic.mac1609_4 TimesIntoBackoff 0
scalar highWayScenario.node[25].nic.mac1609_4 SlotsBackoff 0
scalar highWayScenario.node[25].nic.mac1609_4 NumInternalContention 0
scalar highWayScenario.node[25].nic.mac1609_4 totalBusyTime 0.000232
scalar highWayScenario.node[25].nic.mac1609_4 retriesExceeded:count 0
attr source org_car2x_veins_modules_mac_sigRetriesExceeded
scalar highWayScenario.node[25].nic.mac1609_4 sentAcks:count 0
attr source org_car2x_veins_modules_mac_sigSentAck
scalar highWayScenario.node[25].nic.mac1609_4 sentPackets:count 0
attr source org_car2x_veins_modules_mac_sigSentPacket
scalar highWayScenario.node[25].nic.mac1609_4 collisions:count 0
attr source org_car2x_veins_modules_mac_sigCollision
scalar highWayScenario.node[25].nic.mac1609_4 channelBusy:timeavg 3.8032631894111e-006
attr source org_car2x_veins_modules_mac_sigChannelBusy
scalar highWayScenario.node[25].veinsmobility startTime 25
scalar highWayScenario.node[25].veinsmobility totalTime 61
scalar highWayScenario.node[25].veinsmobility stopTime 86.000248588088
scalar highWayScenario.node[25].veinsmobility minSpeed 1.7800393152284
scalar highWayScenario.node[25].veinsmobility maxSpeed 26.036975595167
scalar highWayScenario.node[25].veinsmobility totalDistance 997.78056296077
scalar highWayScenario.node[25].veinsmobility totalCO2Emission 333.63606887565
scalar highWayScenario.node[26].appl generatedWSMs 0
scalar highWayScenario.node[26].appl receivedWSMs 0
scalar highWayScenario.node[26].appl generatedBSMs 0
scalar highWayScenario.node[26].appl receivedBSMs 0
scalar highWayScenario.node[26].appl generatedWSAs 0
scalar highWayScenario.node[26].appl receivedWSAs 0
scalar highWayScenario.node[26].nic.phy80211p busyTime 3.932186822122e-006
scalar highWayScenario.node[26].nic.mac1609_4 ReceivedUnicastPackets 0
scalar highWayScenario.node[26].nic.mac1609_4 ReceivedBroadcasts 0
scalar highWayScenario.node[26].nic.mac1609_4 SentPackets 0
scalar highWayScenario.node[26].nic.mac1609_4 SentAcknowledgements 0
scalar highWayScenario.node[26].nic.mac1609_4 RetriesExceeded 0
scalar highWayScenario.node[26].nic.mac1609_4 SNIRLostPackets 1
scalar highWayScenario.node[26].nic.mac1609_4 RXTXLostPackets 0
scalar highWayScenario.node[26].nic.mac1609_4 TotalLostPackets 1
scalar highWayScenario.node[26].nic.mac1609_4 DroppedPacketsInMac 0
scalar highWayScenario.node[26].nic.mac1609_4 TooLittleTime 0
scalar highWayScenario.node[26].nic.mac1609_4 TimesIntoBackoff 0
scalar highWayScenario.node[26].nic.mac1609_4 SlotsBackoff 0
scalar highWayScenario.node[26].nic.mac1609_4 NumInternalContention 0
scalar highWayScenario.node[26].nic.mac1609_4 totalBusyTime 0.000232
scalar highWayScenario.node[26].nic.mac1609_4 retriesExceeded:count 0
attr source org_car2x_veins_modules_mac_sigRetriesExceeded
scalar highWayScenario.node[26].nic.mac1609_4 sentAcks:count 0
attr source org_car2x_veins_modules_mac_sigSentAck
scalar highWayScenario.node[26].nic.mac1609_4 sentPackets:count 0
attr source org_car2x_veins_modules_mac_sigSentPacket
scalar highWayScenario.node[26].nic.mac1609_4 collisions:count 0
attr source org_car2x_veins_modules_mac_sigCollision
scalar highWayScenario.node[26].nic.mac1609_4 channelBusy:timeavg 3.932186822122e-006
attr source org_car2x_veins_modules_mac_sigChannelBusy
scalar highWayScenario.node[26].veinsmobility startTime 27
scalar highWayScenario.node[26].veinsmobility totalTime 59
scalar highWayScenario.node[26].veinsmobility stopTime 86.000248588088
scalar highWayScenario.node[26].veinsmobility minSpeed 1.72163362219
scalar highWayScenario.node[26].veinsmobility maxSpeed 30.147279269332
scalar highWayScenario.node[26].veinsmobility totalDistance 1341.450819654
scalar highWayScenario.node[26].veinsmobility totalCO2Emission 355.4199530638
scalar highWayScenario.node[27].appl generatedWSMs 0
scalar highWayScenario.node[27].appl receivedWSMs 0
scalar highWayScenario.node[27].appl generatedBSMs 0
scalar highWayScenario.node[27].appl receivedBSMs 0
scalar highWayScenario.node[27].appl generatedWSAs 0
scalar highWayScenario.node[27].appl receivedWSAs 0
scalar highWayScenario.node[27].nic.phy80211p busyTime 3.9999828560674e-006
scalar highWayScenario.node[27].nic.mac1609_4 ReceivedUnicastPackets 0
scalar highWayScenario.node[27].nic.mac1609_4 ReceivedBroadcasts 0
scalar highWayScenario.node[27].nic.mac1609_4 SentPackets 0
scalar highWayScenario.node[27].nic.mac1609_4 SentAcknowledgements 0
scalar highWayScenario.node[27].nic.mac1609_4 RetriesExceeded 0
scalar highWayScenario.node[27].nic.mac1609_4 SNIRLostPackets 1
scalar highWayScenario.node[27].nic.mac1609_4 RXTXLostPackets 0
scalar highWayScenario.node[27].nic.mac1609_4 TotalLostPackets 1
scalar highWayScenario.node[27].nic.mac1609_4 DroppedPacketsInMac 0
scalar highWayScenario.node[27].nic.mac1609_4 TooLittleTime 0
scalar highWayScenario.node[27].nic.mac1609_4 TimesIntoBackoff 0
scalar highWayScenario.node[27].nic.mac1609_4 SlotsBackoff 0
scalar highWayScenario.node[27].nic.mac1609_4 NumInternalContention 0
scalar highWayScenario.node[27].nic.mac1609_4 totalBusyTime 0.000232
scalar highWayScenario.node[27].nic.mac1609_4 retriesExceeded:count 0
attr source org_car2x_veins_modules_mac_sigRetriesExceeded
scalar highWayScenario.node[27].nic.mac1609_4 sentAcks:count 0
attr source org_car2x_veins_modules_mac_sigSentAck
scalar highWayScenario.node[27].nic.mac1609_4 sentPackets:count 0
attr source org_car2x_veins_modules_mac_sigSentPacket
scalar highWayScenario.node[27].nic.mac1609_4 collisions:count 0
attr source org_car2x_veins_modules_mac_sigCollision
scalar highWayScenario.node[27].nic.mac1609_4 channelBusy:timeavg 3.9999828560674e-006
attr source org_car2x_veins_modules_mac_sigChannelBusy
scalar highWayScenario.node[27].veinsmobility startTime 28
scalar highWayScenario.node[27].veinsmobility totalTime 58
scalar highWayScenario.node[27].veinsmobility stopTime 86.000248588088
scalar highWayScenario.node[27].veinsmobility minSpeed 1.9187130582752
scalar highWayScenario.node[27].veinsmobility maxSpeed 17.556805105159
scalar highWayScenario.node[27].veinsmobility totalDistance 911.77474528684
scalar highWayScenario.node[27].veinsmobility totalCO2Emission 188.59959436694
scalar highWayScenario.node[28].appl generatedWSMs 0
scalar highWayScenario.node[28].appl receivedWSMs 1
scalar highWayScenario.node[28].appl generatedBSMs 0
scalar highWayScenario.node[28].appl receivedBSMs 0
scalar highWayScenario.node[28].appl generatedWSAs 0
scalar highWayScenario.node[28].appl receivedWSAs 0
scalar highWayScenario.node[28].nic.phy80211p busyTime 3.9999828560674e-006
scalar highWayScenario.node[28].nic.mac1609_4 ReceivedUnicastPackets 0
scalar highWayScenario.node[28].nic.mac1609_4 ReceivedBroadcasts 1
scalar highWayScenario.node[28].nic.mac1609_4 SentPackets 0
scalar highWayScenario.node[28].nic.mac1609_4 SentAcknowledgements 0
scalar highWayScenario.node[28].nic.mac1609_4 RetriesExceeded 0
scalar highWayScenario.node[28].nic.mac1609_4 SNIRLostPackets 0
scalar highWayScenario.node[28].nic.mac1609_4 RXTXLostPackets 0
scalar highWayScenario.node[28].nic.mac1609_4 TotalLostPackets 0
scalar highWayScenario.node[28].nic.mac1609_4 DroppedPacketsInMac 0
scalar highWayScenario.node[28].nic.mac1609_4 TooLittleTime 0
scalar highWayScenario.node[28].nic.mac1609_4 TimesIntoBackoff 0
scalar highWayScenario.node[28].nic.mac1609_4 SlotsBackoff 0
scalar highWayScenario.node[28].nic.mac1609_4 NumInternalContention 0
scalar highWayScenario.node[28].nic.mac1609_4 totalBusyTime 0.000232
scalar highWayScenario.node[28].nic.mac1609_4 retriesExceeded:count 0
attr source org_car2x_veins_modules_mac_sigRetriesExceeded
scalar highWayScenario.node[28].nic.mac1609_4 sentAcks:count 0
attr source org_car2x_veins_modules_mac_sigSentAck
scalar highWayScenario.node[28].nic.mac1609_4 sentPackets:count 0
attr source org_car2x_veins_modules_mac_sigSentPacket
scalar highWayScenario.node[28].nic.mac1609_4 collisions:count 0
attr source org_car2x_veins_modules_mac_sigCollision
scalar highWayScenario.node[28].nic.mac1609_4 channelBusy:timeavg 3.9999828560674e-006
attr source org_car2x_veins_modules_mac_sigChannelBusy
scalar highWayScenario.node[28].veinsmobility startTime 28
scalar highWayScenario.node[28].veinsmobility totalTime 58
scalar highWayScenario.node[28].veinsmobility stopTime 86.000248588088
scalar highWayScenario.node[28].veinsmobility minSpeed 1.5483954456868
scalar highWayScenario.node[28].veinsmobility maxSpeed 28.031683844069
scalar highWayScenario.node[28].veinsmobility totalDistance 970.07016911196
scalar highWayScenario.node[28].veinsmobility totalCO2Emission 344.26218894549
scalar highWayScenario.node[29].appl generatedWSMs 0
scalar highWayScenario.node[29].appl receivedWSMs 0
scalar highWayScenario.node[29].appl generatedBSMs 0
scalar highWayScenario.node[29].appl receivedBSMs 0
scalar highWayScenario.node[29].appl generatedWSAs 0
scalar highWayScenario.node[29].appl receivedWSAs 0
scalar highWayScenario.node[29].nic.phy80211p busyTime 4.1428387524935e-006
scalar highWayScenario.node[29].nic.mac1609_4 ReceivedUnicastPackets 0
scalar highWayScenario.node[29].nic.mac1609_4 ReceivedBroadcasts 0
scalar highWayScenario.node[29].nic.mac1609_4 SentPackets 0
scalar highWayScenario.node[29].nic.mac1609_4 SentAcknowledgements 0
scalar highWayScenario.node[29].nic.mac1609_4 RetriesExceeded 0
scalar highWayScenario.node[29].nic.mac1609_4 SNIRLostPackets 1
scalar highWayScenario.node[29].nic.mac1609_4 RXTXLostPackets 0
scalar highWayScenario.node[29].nic.mac1609_4 TotalLostPackets 1
scalar highWayScenario.node[29].nic.mac1609_4 DroppedPacketsInMac 0
scalar highWayScenario.node[29].nic.mac1609_4 TooLittleTime 0
scalar highWayScenario.node[29].nic.mac1609_4 TimesIntoBackoff 0
scalar highWayScenario.node[29].nic.mac1609_4 SlotsBackoff 0
scalar highWayScenario.node[29].nic.mac1609_4 NumInternalContention 0
scalar highWayScenario.node[29].nic.mac1609_4 totalBusyTime 0.000232
scalar highWayScenario.node[29].nic.mac1609_4 retriesExceeded:count 0
attr source org_car2x_veins_modules_mac_sigRetriesExceeded
scalar highWayScenario.node[29].nic.mac1609_4 sentAcks:count 0
attr source org_car2x_veins_modules_mac_sigSentAck
scalar highWayScenario.node[29].nic.mac1609_4 sentPackets:count 0
attr source org_car2x_veins_modules_mac_sigSentPacket
scalar highWayScenario.node[29].nic.mac1609_4 collisions:count 0
attr source org_car2x_veins_modules_mac_sigCollision
scalar highWayScenario.node[29].nic.mac1609_4 channelBusy:timeavg 4.1428387524935e-006
attr source org_car2x_veins_modules_mac_sigChannelBusy
scalar highWayScenario.node[29].veinsmobility startTime 30
scalar highWayScenario.node[29].veinsmobility totalTime 56
scalar highWayScenario.node[29].veinsmobility stopTime 86.000248588088
scalar highWayScenario.node[29].veinsmobility minSpeed 1.842209895351
scalar highWayScenario.node[29].veinsmobility maxSpeed 28.752294212459
scalar highWayScenario.node[29].veinsmobility totalDistance 1310.4257652117
scalar highWayScenario.node[29].veinsmobility totalCO2Emission 337.1895617899
scalar highWayScenario.node[30].appl generatedWSMs 0
scalar highWayScenario.node[30].appl receivedWSMs 1
scalar highWayScenario.node[30].appl generatedBSMs 0
scalar highWayScenario.node[30].appl receivedBSMs 0
scalar highWayScenario.node[30].appl generatedWSAs 0
scalar highWayScenario.node[30].appl receivedWSAs 0
scalar highWayScenario.node[30].nic.phy80211p busyTime 4.2181627529998e-006
scalar highWayScenario.node[30].nic.mac1609_4 ReceivedUnicastPackets 0
scalar highWayScenario.node[30].nic.mac1609_4 ReceivedBroadcasts 1
scalar highWayScenario.node[30].nic.mac1609_4 SentPackets 0
scalar highWayScenario.node[30].nic.mac1609_4 SentAcknowledgements 0
scalar highWayScenario.node[30].nic.mac1609_4 RetriesExceeded 0
scalar highWayScenario.node[30].nic.mac1609_4 SNIRLostPackets 0
scalar highWayScenario.node[30].nic.mac1609_4 RXTXLostPackets 0
scalar highWayScenario.node[30].nic.mac1609_4 TotalLostPackets 0
scalar highWayScenario.node[30].nic.mac1609_4 DroppedPacketsInMac 0
scalar highWayScenario.node[30].nic.mac1609_4 TooLittleTime 0
scalar highWayScenario.node[30].nic.mac1609_4 TimesIntoBackoff 0
scalar highWayScenario.node[30].nic.mac1609_4 SlotsBackoff 0
scalar highWayScenario.node[30].nic.mac1609_4 NumInternalContention 0
scalar highWayScenario.node[30].nic.mac1609_4 totalBusyTime 0.000232
scalar highWayScenario.node[30].nic.mac1609_4 retriesExceeded:count 0
attr source org_car2x_veins_modules_mac_sigRetriesExceeded
scalar highWayScenario.node[30].nic.mac1609_4 sentAcks:count 0
attr source org_car2x_veins_modules_mac_sigSentAck
scalar highWayScenario.node[30].nic.mac1609_4 sentPackets:count 0
attr source org_car2x_veins_modules_mac_sigSentPacket
scalar highWayScenario.node[30].nic.mac1609_4 collisions:count 0
attr source org_car2x_veins_modules_mac_sigCollision
scalar highWayScenario.node[30].nic.mac1609_4 channelBusy:timeavg 4.2181627529998e-006
attr source org_car2x_veins_modules_mac_sigChannelBusy
scalar highWayScenario.node[30].veinsmobility startTime 31
scalar highWayScenario.node[30].veinsmobility totalTime 55
scalar highWayScenario.node[30].veinsmobility stopTime 86.000248588088
scalar highWayScenario.node[30].veinsmobility minSpeed 2.0690413213568
scalar highWayScenario.node[30].veinsmobility maxSpeed 30.092704501422
scalar highWayScenario.node[30].veinsmobility totalDistance 931.52814777712
scalar highWayScenario.node[30].veinsmobility totalCO2Emission 348.655055442
scalar highWayScenario.node[31].appl generatedWSMs 0
scalar highWayScenario.node[31].appl receivedWSMs 0
scalar highWayScenario.node[31].appl generatedBSMs 0
scalar highWayScenario.node[31].appl receivedBSMs 0
scalar highWayScenario.node[31].appl generatedWSAs 0
scalar highWayScenario.node[31].appl receivedWSAs 0
scalar highWayScenario.node[31].nic.phy80211p busyTime 4.2181627529998e-006
scalar highWayScenario.node[31].nic.mac1609_4 ReceivedUnicastPackets 0
scalar highWayScenario.node[31].nic.mac1609_4 ReceivedBroadcasts 0
scalar highWayScenario.node[31].nic.mac1609_4 SentPackets 0
scalar highWayScenario.node[31].nic.mac1609_4 SentAcknowledgements 0
scalar highWayScenario.node[31].nic.mac1609_4 RetriesExceeded 0
scalar highWayScenario.node[31].nic.mac1609_4 SNIRLostPackets 1
scalar highWayScenario.node[31].nic.mac1609_4 RXTXLostPackets 0
scalar highWayScenario.node[31].nic.mac1609_4 TotalLostPackets 1
scalar highWayScenario.node[31].nic.mac1609_4 DroppedPacketsInMac 0
scalar highWayScenario.node[31].nic.mac1609_4 TooLittleTime 0
scalar highWayScenario.node[31].nic.mac1609_4 TimesIntoBackoff 0
scalar highWayScenario.node[31].nic.mac1609_4 SlotsBackoff 0
[...]
attr source org_car2x_veins_modules_mac_sigCollision
scalar highWayScenario.node[77].nic.mac1609_4 channelBusy:timeavg 3.3141680196155e-005
attr source org_car2x_veins_modules_mac_sigChannelBusy
scalar highWayScenario.node[77].veinsmobility startTime 79
scalar highWayScenario.node[77].veinsmobility totalTime 7
scalar highWayScenario.node[77].veinsmobility stopTime 86.000248588088
scalar highWayScenario.node[77].veinsmobility minSpeed 2.223177333409
scalar highWayScenario.node[77].veinsmobility maxSpeed 14.955513617117
scalar highWayScenario.node[77].veinsmobility totalDistance 59.402299199294
scalar highWayScenario.node[77].veinsmobility totalCO2Emission 39.78233863589
scalar highWayScenario.node[78].appl generatedWSMs 0
scalar highWayScenario.node[78].appl receivedWSMs 0
scalar highWayScenario.node[78].appl generatedBSMs 0
scalar highWayScenario.node[78].appl receivedBSMs 0
scalar highWayScenario.node[78].appl generatedWSAs 0
scalar highWayScenario.node[78].appl receivedWSAs 0
scalar highWayScenario.node[78].nic.phy80211p busyTime 3.3141680196155e-005
scalar highWayScenario.node[78].nic.mac1609_4 ReceivedUnicastPackets 0
scalar highWayScenario.node[78].nic.mac1609_4 ReceivedBroadcasts 0
scalar highWayScenario.node[78].nic.mac1609_4 SentPackets 0
scalar highWayScenario.node[78].nic.mac1609_4 SentAcknowledgements 0
scalar highWayScenario.node[78].nic.mac1609_4 RetriesExceeded 0
scalar highWayScenario.node[78].nic.mac1609_4 SNIRLostPackets 1
scalar highWayScenario.node[78].nic.mac1609_4 RXTXLostPackets 0
scalar highWayScenario.node[78].nic.mac1609_4 TotalLostPackets 1
scalar highWayScenario.node[78].nic.mac1609_4 DroppedPacketsInMac 0
scalar highWayScenario.node[78].nic.mac1609_4 TooLittleTime 0
scalar highWayScenario.node[78].nic.mac1609_4 TimesIntoBackoff 0
scalar highWayScenario.node[78].nic.mac1609_4 SlotsBackoff 0
scalar highWayScenario.node[78].nic.mac1609_4 NumInternalContention 0
scalar highWayScenario.node[78].nic.mac1609_4 totalBusyTime 0.000232
scalar highWayScenario.node[78].nic.mac1609_4 retriesExceeded:count 0
attr source org_car2x_veins_modules_mac_sigRetriesExceeded
scalar highWayScenario.node[78].nic.mac1609_4 sentAcks:count 0
attr source org_car2x_veins_modules_mac_sigSentAck
scalar highWayScenario.node[78].nic.mac1609_4 sentPackets:count 0
attr source org_car2x_veins_modules_mac_sigSentPacket
scalar highWayScenario.node[78].nic.mac1609_4 collisions:count 0
attr source org_car2x_veins_modules_mac_sigCollision
scalar highWayScenario.node[78].nic.mac1609_4 channelBusy:timeavg 3.3141680196155e-005
attr source org_car2x_veins_modules_mac_sigChannelBusy
scalar highWayScenario.node[78].veinsmobility startTime 79
scalar highWayScenario.node[78].veinsmobility totalTime 7
scalar highWayScenario.node[78].veinsmobility stopTime 86.000248588088
scalar highWayScenario.node[78].veinsmobility minSpeed 2.2596782192355
scalar highWayScenario.node[78].veinsmobility maxSpeed 12.854836660204
scalar highWayScenario.node[78].veinsmobility totalDistance 53.384281737252
scalar highWayScenario.node[78].veinsmobility totalCO2Emission 31.267821491909
scalar highWayScenario.node[79].appl generatedWSMs 0
scalar highWayScenario.node[79].appl receivedWSMs 0
scalar highWayScenario.node[79].appl generatedBSMs 0
scalar highWayScenario.node[79].appl receivedBSMs 0
scalar highWayScenario.node[79].appl generatedWSAs 0
scalar highWayScenario.node[79].appl receivedWSAs 0
scalar highWayScenario.node[79].nic.phy80211p busyTime 3.3141680196155e-005
scalar highWayScenario.node[79].nic.mac1609_4 ReceivedUnicastPackets 0
scalar highWayScenario.node[79].nic.mac1609_4 ReceivedBroadcasts 0
scalar highWayScenario.node[79].nic.mac1609_4 SentPackets 0
scalar highWayScenario.node[79].nic.mac1609_4 SentAcknowledgements 0
scalar highWayScenario.node[79].nic.mac1609_4 RetriesExceeded 0
scalar highWayScenario.node[79].nic.mac1609_4 SNIRLostPackets 0
scalar highWayScenario.node[79].nic.mac1609_4 RXTXLostPackets 0
scalar highWayScenario.node[79].nic.mac1609_4 TotalLostPackets 0
scalar highWayScenario.node[79].nic.mac1609_4 DroppedPacketsInMac 0
scalar highWayScenario.node[79].nic.mac1609_4 TooLittleTime 0
scalar highWayScenario.node[79].nic.mac1609_4 TimesIntoBackoff 0
scalar highWayScenario.node[79].nic.mac1609_4 SlotsBackoff 0
scalar highWayScenario.node[79].nic.mac1609_4 NumInternalContention 0
scalar highWayScenario.node[79].nic.mac1609_4 totalBusyTime 0
scalar highWayScenario.node[79].nic.mac1609_4 retriesExceeded:count 0
attr source org_car2x_veins_modules_mac_sigRetriesExceeded
scalar highWayScenario.node[79].nic.mac1609_4 sentAcks:count 0
attr source org_car2x_veins_modules_mac_sigSentAck
scalar highWayScenario.node[79].nic.mac1609_4 sentPackets:count 0
attr source org_car2x_veins_modules_mac_sigSentPacket
scalar highWayScenario.node[79].nic.mac1609_4 collisions:count 0
attr source org_car2x_veins_modules_mac_sigCollision
scalar highWayScenario.node[79].nic.mac1609_4 channelBusy:timeavg 3.2969392028839e-005
attr source org_car2x_veins_modules_mac_sigChannelBusy
scalar highWayScenario.node[79].veinsmobility startTime 79
scalar highWayScenario.node[79].veinsmobility totalTime 7
scalar highWayScenario.node[79].veinsmobility stopTime 86.000248588088
scalar highWayScenario.node[79].veinsmobility minSpeed 2.4183074514149
scalar highWayScenario.node[79].veinsmobility maxSpeed 15.381478424929
scalar highWayScenario.node[79].veinsmobility totalDistance 60.39143220173
scalar highWayScenario.node[79].veinsmobility totalCO2Emission 41.455795309609
scalar highWayScenario.node[80].appl generatedWSMs 0
scalar highWayScenario.node[80].appl receivedWSMs 0
scalar highWayScenario.node[80].appl generatedBSMs 0
scalar highWayScenario.node[80].appl receivedBSMs 0
scalar highWayScenario.node[80].appl generatedWSAs 0
scalar highWayScenario.node[80].appl receivedWSAs 0
scalar highWayScenario.node[80].nic.phy80211p busyTime 5.7996395696721e-005
scalar highWayScenario.node[80].nic.mac1609_4 ReceivedUnicastPackets 0
scalar highWayScenario.node[80].nic.mac1609_4 ReceivedBroadcasts 0
scalar highWayScenario.node[80].nic.mac1609_4 SentPackets 0
scalar highWayScenario.node[80].nic.mac1609_4 SentAcknowledgements 0
scalar highWayScenario.node[80].nic.mac1609_4 RetriesExceeded 0
scalar highWayScenario.node[80].nic.mac1609_4 SNIRLostPackets 1
scalar highWayScenario.node[80].nic.mac1609_4 RXTXLostPackets 0
scalar highWayScenario.node[80].nic.mac1609_4 TotalLostPackets 1
scalar highWayScenario.node[80].nic.mac1609_4 DroppedPacketsInMac 0
scalar highWayScenario.node[80].nic.mac1609_4 TooLittleTime 0
scalar highWayScenario.node[80].nic.mac1609_4 TimesIntoBackoff 0
scalar highWayScenario.node[80].nic.mac1609_4 SlotsBackoff 0
scalar highWayScenario.node[80].nic.mac1609_4 NumInternalContention 0
scalar highWayScenario.node[80].nic.mac1609_4 totalBusyTime 0.000232
scalar highWayScenario.node[80].nic.mac1609_4 retriesExceeded:count 0
attr source org_car2x_veins_modules_mac_sigRetriesExceeded
scalar highWayScenario.node[80].nic.mac1609_4 sentAcks:count 0
attr source org_car2x_veins_modules_mac_sigSentAck
scalar highWayScenario.node[80].nic.mac1609_4 sentPackets:count 0
attr source org_car2x_veins_modules_mac_sigSentPacket
scalar highWayScenario.node[80].nic.mac1609_4 collisions:count 0
attr source org_car2x_veins_modules_mac_sigCollision
scalar highWayScenario.node[80].nic.mac1609_4 channelBusy:timeavg 5.7996395696721e-005
attr source org_car2x_veins_modules_mac_sigChannelBusy
scalar highWayScenario.node[80].veinsmobility startTime 82
scalar highWayScenario.node[80].veinsmobility totalTime 4
scalar highWayScenario.node[80].veinsmobility stopTime 86.000248588088
scalar highWayScenario.node[80].veinsmobility minSpeed 1.8524912786437
scalar highWayScenario.node[80].veinsmobility maxSpeed 7.446323385532
scalar highWayScenario.node[80].veinsmobility totalDistance 18.826780310133
scalar highWayScenario.node[80].veinsmobility totalCO2Emission 11.75487579043
scalar highWayScenario.node[81].appl generatedWSMs 0
scalar highWayScenario.node[81].appl receivedWSMs 0
scalar highWayScenario.node[81].appl generatedBSMs 0
scalar highWayScenario.node[81].appl receivedBSMs 0
scalar highWayScenario.node[81].appl generatedWSAs 0
scalar highWayScenario.node[81].appl receivedWSAs 0
scalar highWayScenario.node[81].nic.phy80211p busyTime 5.7996395696721e-005
scalar highWayScenario.node[81].nic.mac1609_4 ReceivedUnicastPackets 0
scalar highWayScenario.node[81].nic.mac1609_4 ReceivedBroadcasts 0
scalar highWayScenario.node[81].nic.mac1609_4 SentPackets 0
scalar highWayScenario.node[81].nic.mac1609_4 SentAcknowledgements 0
scalar highWayScenario.node[81].nic.mac1609_4 RetriesExceeded 0
scalar highWayScenario.node[81].nic.mac1609_4 SNIRLostPackets 1
scalar highWayScenario.node[81].nic.mac1609_4 RXTXLostPackets 0
scalar highWayScenario.node[81].nic.mac1609_4 TotalLostPackets 1
scalar highWayScenario.node[81].nic.mac1609_4 DroppedPacketsInMac 0
scalar highWayScenario.node[81].nic.mac1609_4 TooLittleTime 0
scalar highWayScenario.node[81].nic.mac1609_4 TimesIntoBackoff 0
scalar highWayScenario.node[81].nic.mac1609_4 SlotsBackoff 0
scalar highWayScenario.node[81].nic.mac1609_4 NumInternalContention 0
scalar highWayScenario.node[81].nic.mac1609_4 totalBusyTime 0.000232
scalar highWayScenario.node[81].nic.mac1609_4 retriesExceeded:count 0
attr source org_car2x_veins_modules_mac_sigRetriesExceeded
scalar highWayScenario.node[81].nic.mac1609_4 sentAcks:count 0
attr source org_car2x_veins_modules_mac_sigSentAck
scalar highWayScenario.node[81].nic.mac1609_4 sentPackets:count 0
attr source org_car2x_veins_modules_mac_sigSentPacket
scalar highWayScenario.node[81].nic.mac1609_4 collisions:count 0
attr source org_car2x_veins_modules_mac_sigCollision
scalar highWayScenario.node[81].nic.mac1609_4 channelBusy:timeavg 5.7996395696721e-005
attr source org_car2x_veins_modules_mac_sigChannelBusy
scalar highWayScenario.node[81].veinsmobility startTime 82
scalar highWayScenario.node[81].veinsmobility totalTime 4
scalar highWayScenario.node[81].veinsmobility stopTime 86.000248588088
scalar highWayScenario.node[81].veinsmobility minSpeed 1.9825623961166
scalar highWayScenario.node[81].veinsmobility maxSpeed 8.5584238054464
scalar highWayScenario.node[81].veinsmobility totalDistance 20.189170013907
scalar highWayScenario.node[81].veinsmobility totalCO2Emission 14.4291924629
scalar highWayScenario.node[82].appl generatedWSMs 0
scalar highWayScenario.node[82].appl receivedWSMs 0
scalar highWayScenario.node[82].appl generatedBSMs 0
scalar highWayScenario.node[82].appl receivedBSMs 0
scalar highWayScenario.node[82].appl generatedWSAs 0
scalar highWayScenario.node[82].appl receivedWSAs 0
scalar highWayScenario.node[82].nic.phy80211p busyTime 5.7996395696721e-005
scalar highWayScenario.node[82].nic.mac1609_4 ReceivedUnicastPackets 0
scalar highWayScenario.node[82].nic.mac1609_4 ReceivedBroadcasts 0
scalar highWayScenario.node[82].nic.mac1609_4 SentPackets 0
scalar highWayScenario.node[82].nic.mac1609_4 SentAcknowledgements 0
scalar highWayScenario.node[82].nic.mac1609_4 RetriesExceeded 0
scalar highWayScenario.node[82].nic.mac1609_4 SNIRLostPackets 0
scalar highWayScenario.node[82].nic.mac1609_4 RXTXLostPackets 0
scalar highWayScenario.node[82].nic.mac1609_4 TotalLostPackets 0
scalar highWayScenario.node[82].nic.mac1609_4 DroppedPacketsInMac 0
scalar highWayScenario.node[82].nic.mac1609_4 TooLittleTime 0
scalar highWayScenario.node[82].nic.mac1609_4 TimesIntoBackoff 0
scalar highWayScenario.node[82].nic.mac1609_4 SlotsBackoff 0
scalar highWayScenario.node[82].nic.mac1609_4 NumInternalContention 0
scalar highWayScenario.node[82].nic.mac1609_4 totalBusyTime 0
scalar highWayScenario.node[82].nic.mac1609_4 retriesExceeded:count 0
attr source org_car2x_veins_modules_mac_sigRetriesExceeded
scalar highWayScenario.node[82].nic.mac1609_4 sentAcks:count 0
attr source org_car2x_veins_modules_mac_sigSentAck
scalar highWayScenario.node[82].nic.mac1609_4 sentPackets:count 0
attr source org_car2x_veins_modules_mac_sigSentPacket
scalar highWayScenario.node[82].nic.mac1609_4 collisions:count 0
attr source org_car2x_veins_modules_mac_sigCollision
scalar highWayScenario.node[82].nic.mac1609_4 channelBusy:timeavg 5.7659060661089e-005
attr source org_car2x_veins_modules_mac_sigChannelBusy
scalar highWayScenario.node[82].veinsmobility startTime 82
scalar highWayScenario.node[82].veinsmobility totalTime 4
scalar highWayScenario.node[82].veinsmobility stopTime 86.000248588088
scalar highWayScenario.node[82].veinsmobility minSpeed 1.8563885363983
scalar highWayScenario.node[82].veinsmobility maxSpeed 6.6745253446046
scalar highWayScenario.node[82].veinsmobility totalDistance 17.296600157396
scalar highWayScenario.node[82].veinsmobility totalCO2Emission 10.019499994964
scalar highWayScenario.node[83].appl generatedWSMs 0
scalar highWayScenario.node[83].appl receivedWSMs 0
scalar highWayScenario.node[83].appl generatedBSMs 0
scalar highWayScenario.node[83].appl receivedBSMs 0
scalar highWayScenario.node[83].appl generatedWSAs 0
scalar highWayScenario.node[83].appl receivedWSAs 0
scalar highWayScenario.node[83].nic.phy80211p busyTime 0.0002319423418967
scalar highWayScenario.node[83].nic.mac1609_4 ReceivedUnicastPackets 0
scalar highWayScenario.node[83].nic.mac1609_4 ReceivedBroadcasts 0
scalar highWayScenario.node[83].nic.mac1609_4 SentPackets 0
scalar highWayScenario.node[83].nic.mac1609_4 SentAcknowledgements 0
scalar highWayScenario.node[83].nic.mac1609_4 RetriesExceeded 0
scalar highWayScenario.node[83].nic.mac1609_4 SNIRLostPackets 1
scalar highWayScenario.node[83].nic.mac1609_4 RXTXLostPackets 0
scalar highWayScenario.node[83].nic.mac1609_4 TotalLostPackets 1
scalar highWayScenario.node[83].nic.mac1609_4 DroppedPacketsInMac 0
scalar highWayScenario.node[83].nic.mac1609_4 TooLittleTime 0
scalar highWayScenario.node[83].nic.mac1609_4 TimesIntoBackoff 0
scalar highWayScenario.node[83].nic.mac1609_4 SlotsBackoff 0
scalar highWayScenario.node[83].nic.mac1609_4 NumInternalContention 0
scalar highWayScenario.node[83].nic.mac1609_4 totalBusyTime 0.000232
scalar highWayScenario.node[83].nic.mac1609_4 retriesExceeded:count 0
attr source org_car2x_veins_modules_mac_sigRetriesExceeded
scalar highWayScenario.node[83].nic.mac1609_4 sentAcks:count 0
attr source org_car2x_veins_modules_mac_sigSentAck
scalar highWayScenario.node[83].nic.mac1609_4 sentPackets:count 0
attr source org_car2x_veins_modules_mac_sigSentPacket
scalar highWayScenario.node[83].nic.mac1609_4 collisions:count 0
attr source org_car2x_veins_modules_mac_sigCollision
scalar highWayScenario.node[83].nic.mac1609_4 channelBusy:timeavg 0.0002319423418967
attr source org_car2x_veins_modules_mac_sigChannelBusy
scalar highWayScenario.node[83].veinsmobility startTime 85
scalar highWayScenario.node[83].veinsmobility totalTime 1
scalar highWayScenario.node[83].veinsmobility stopTime 86.000248588088
scalar highWayScenario.node[83].veinsmobility minSpeed 1.4161748748971
scalar highWayScenario.node[83].veinsmobility maxSpeed 1.4161748748971
scalar highWayScenario.node[83].veinsmobility totalDistance 1.4161715917198
scalar highWayScenario.node[83].veinsmobility totalCO2Emission 0
scalar highWayScenario.node[84].appl generatedWSMs 0
scalar highWayScenario.node[84].appl receivedWSMs 0
scalar highWayScenario.node[84].appl generatedBSMs 0
scalar highWayScenario.node[84].appl receivedBSMs 0
scalar highWayScenario.node[84].appl generatedWSAs 0
scalar highWayScenario.node[84].appl receivedWSAs 0
scalar highWayScenario.node[84].nic.phy80211p busyTime 0.0002319423418967
scalar highWayScenario.node[84].nic.mac1609_4 ReceivedUnicastPackets 0
scalar highWayScenario.node[84].nic.mac1609_4 ReceivedBroadcasts 0
scalar highWayScenario.node[84].nic.mac1609_4 SentPackets 0
scalar highWayScenario.node[84].nic.mac1609_4 SentAcknowledgements 0
scalar highWayScenario.node[84].nic.mac1609_4 RetriesExceeded 0
scalar highWayScenario.node[84].nic.mac1609_4 SNIRLostPackets 1
scalar highWayScenario.node[84].nic.mac1609_4 RXTXLostPackets 0
scalar highWayScenario.node[84].nic.mac1609_4 TotalLostPackets 1
scalar highWayScenario.node[84].nic.mac1609_4 DroppedPacketsInMac 0
scalar highWayScenario.node[84].nic.mac1609_4 TooLittleTime 0
scalar highWayScenario.node[84].nic.mac1609_4 TimesIntoBackoff 0
scalar highWayScenario.node[84].nic.mac1609_4 SlotsBackoff 0
scalar highWayScenario.node[84].nic.mac1609_4 NumInternalContention 0
scalar highWayScenario.node[84].nic.mac1609_4 totalBusyTime 0.000232
scalar highWayScenario.node[84].nic.mac1609_4 retriesExceeded:count 0
attr source org_car2x_veins_modules_mac_sigRetriesExceeded
scalar highWayScenario.node[84].nic.mac1609_4 sentAcks:count 0
attr source org_car2x_veins_modules_mac_sigSentAck
scalar highWayScenario.node[84].nic.mac1609_4 sentPackets:count 0
attr source org_car2x_veins_modules_mac_sigSentPacket
scalar highWayScenario.node[84].nic.mac1609_4 collisions:count 0
attr source org_car2x_veins_modules_mac_sigCollision
scalar highWayScenario.node[84].nic.mac1609_4 channelBusy:timeavg 0.0002319423418967
attr source org_car2x_veins_modules_mac_sigChannelBusy
scalar highWayScenario.node[84].veinsmobility startTime 85
scalar highWayScenario.node[84].veinsmobility totalTime 1
scalar highWayScenario.node[84].veinsmobility stopTime 86.000248588088
scalar highWayScenario.node[84].veinsmobility minSpeed 2.4692374207312
scalar highWayScenario.node[84].veinsmobility maxSpeed 2.4692374207312
scalar highWayScenario.node[84].veinsmobility totalDistance 2.4692318244442
scalar highWayScenario.node[84].veinsmobility totalCO2Emission 0
scalar highWayScenario.node[85].appl generatedWSMs 0
scalar highWayScenario.node[85].appl receivedWSMs 0
scalar highWayScenario.node[85].appl generatedBSMs 0
scalar highWayScenario.node[85].appl receivedBSMs 0
scalar highWayScenario.node[85].appl generatedWSAs 0
scalar highWayScenario.node[85].appl receivedWSAs 0
scalar highWayScenario.node[85].nic.phy80211p busyTime 0.0002319423418967
scalar highWayScenario.node[85].nic.mac1609_4 ReceivedUnicastPackets 0
scalar highWayScenario.node[85].nic.mac1609_4 ReceivedBroadcasts 0
scalar highWayScenario.node[85].nic.mac1609_4 SentPackets 0
scalar highWayScenario.node[85].nic.mac1609_4 SentAcknowledgements 0
scalar highWayScenario.node[85].nic.mac1609_4 RetriesExceeded 0
scalar highWayScenario.node[85].nic.mac1609_4 SNIRLostPackets 0
scalar highWayScenario.node[85].nic.mac1609_4 RXTXLostPackets 0
scalar highWayScenario.node[85].nic.mac1609_4 TotalLostPackets 0
scalar highWayScenario.node[85].nic.mac1609_4 DroppedPacketsInMac 0
scalar highWayScenario.node[85].nic.mac1609_4 TooLittleTime 0
scalar highWayScenario.node[85].nic.mac1609_4 TimesIntoBackoff 0
scalar highWayScenario.node[85].nic.mac1609_4 SlotsBackoff 0
scalar highWayScenario.node[85].nic.mac1609_4 NumInternalContention 0
scalar highWayScenario.node[85].nic.mac1609_4 totalBusyTime 0
scalar highWayScenario.node[85].nic.mac1609_4 retriesExceeded:count 0
attr source org_car2x_veins_modules_mac_sigRetriesExceeded
scalar highWayScenario.node[85].nic.mac1609_4 sentAcks:count 0
attr source org_car2x_veins_modules_mac_sigSentAck
scalar highWayScenario.node[85].nic.mac1609_4 sentPackets:count 0
attr source org_car2x_veins_modules_mac_sigSentPacket
scalar highWayScenario.node[85].nic.mac1609_4 collisions:count 0
attr source org_car2x_veins_modules_mac_sigCollision
scalar highWayScenario.node[85].nic.mac1609_4 channelBusy:timeavg 0.00023054262085068
attr source org_car2x_veins_modules_mac_sigChannelBusy
scalar highWayScenario.node[85].veinsmobility startTime 85
scalar highWayScenario.node[85].veinsmobility totalTime 1
scalar highWayScenario.node[85].veinsmobility stopTime 86.000248588088
scalar highWayScenario.node[85].veinsmobility minSpeed 2.1089601157233
scalar highWayScenario.node[85].veinsmobility maxSpeed 2.1089601157233
scalar highWayScenario.node[85].veinsmobility totalDistance 2.1110136688561
scalar highWayScenario.node[85].veinsmobility totalCO2Emission 0

